31
0 1
C          -0.48891102648115    1.04894019515942    0.75290429776310
C           0.82050070965658    0.90286915308338    0.59241690095943
S           1.60435451221176   -0.37891850040542   -0.34134465300350
C           0.13570221143907   -1.18017040655720   -0.91586304688974
C          -1.10501117459807   -0.83546121666130   -0.59440330347791
N          -1.47899432865704    0.22313074042091    0.22862863117177
C          -2.82206209040950    0.46620377275611    0.49375191191266
C          -3.72506078292887   -0.59776069151021    0.62227770559993
C          -5.05625581968331   -0.36227168893547    0.86462646273770
C          -5.53914098742773    0.94572126331251    1.00554877631876
C          -4.63170937112859    2.01096473440045    0.88219547066227
C          -3.30431891914454    1.77590665690686    0.62753501780441
N          -6.88848321588132    1.09510172139406    1.18870573952759
N          -7.29516655809939    2.25555898471035    1.54353967350986
C          -8.64842673895795    2.40310032759110    1.63876668011495
C          -9.70262045404999    1.48821638706816    1.33718747168444
C         -10.88063406153267    2.12891219788016    1.58330351199070
C          -9.24286999883143    3.58509305614763    2.06412822469963
N         -10.56607457867423    3.37463068160274    2.01671803475954
F         -11.50136727371988    4.31353438458648    2.36088787751604
H          -0.85601748091037    1.84806038887000    1.37850570537953
H           1.52169321529102    1.57621435538148    1.05137743435698
H           0.33629953033044   -1.99382924802065   -1.58931360847915
H          -1.93190645715158   -1.37191754117143   -1.03518875944116
H          -3.36842160986539   -1.61513264720938    0.55861910258163
H          -5.74855720206168   -1.18235747948983    0.97505040785890
H          -5.01209994349148    3.01767495723453    0.96492857151044
H          -2.63457853707071    2.61258909073386    0.49186292531943
H          -9.57139826473552    0.48755177234054    0.98112902309517
H         -11.89961141491104    1.81327312717142    1.48885978243255
H          -8.81287188852569    4.51063147120834    2.38411803002459
