38
0 1
C          -0.52588136142872    1.07838719813460    0.78464301455371
C           0.78639277540187    0.95322631605500    0.62749892854937
S           1.59194652098706   -0.29416350746921   -0.33669750435221
C           0.13510039561324   -1.10638077550229   -0.92819740267183
C          -1.11125987546807   -0.78328259613405   -0.60657641213690
N          -1.50370401142083    0.25678741511148    0.23132471111499
C          -2.85258980076155    0.48640176365223    0.48735827010552
C          -3.75353703856207   -0.58282787022243    0.57583885580168
C          -5.08839229851762   -0.35831706128442    0.81121992636088
C          -5.57694333776208    0.94252277592394    0.99022625340176
C          -4.67191619109436    2.01316983174041    0.90541040359070
C          -3.34149184593200    1.78961956141277    0.65277541629070
N          -6.92851919490012    1.08359651626692    1.16942900388263
N          -7.33417164770865    2.22322572856311    1.59030523529057
C          -8.68276313619320    2.37941423919618    1.68567120695410
C          -9.75316810355644    1.50383834154730    1.30569549495555
C         -10.91210632075765    2.14280926358104    1.60028945628987
C          -9.26903831185247    3.52330136033099    2.19789055520829
N         -10.61841238383351    3.37373519679815    2.14648690789368
C         -11.54316935430251    4.29931637709057    2.57921546016137
C         -12.91207247452481    4.28096315814469    2.58144860785169
C         -13.30805479234922    5.51301797620884    3.15726678223828
C         -12.16385310212825    6.17940993508662    3.45872377581102
O         -11.08356107764335    5.44959077495058    3.10996632432247
H          -0.90491756891728    1.85544997159273    1.43125492091908
H           1.47609971407851    1.62217410482446    1.11027532078549
H           0.34932135271313   -1.90953186263531   -1.61025519804756
H          -1.92785917611687   -1.32673916196700   -1.05779579413507
H          -3.39481618889479   -1.59760572545231    0.48584843021024
H          -5.77795650674118   -1.18452792576661    0.88968205576787
H          -5.05483657506852    3.01626244562314    1.01685965166129
H          -2.67447908808119    2.63288268581132    0.54628764830169
H          -9.63437510409417    0.53298509865444    0.86998266223118
H         -11.92864748885608    1.83073673021148    1.46866201093223
H          -8.81682674524460    4.41014655157471    2.59226106713159
H         -13.55390207300301    3.50338021200078    2.22435383185234
H         -14.31118631532687    5.84815490059540    3.32114796705886
H         -11.98074226775291    7.13661005575132    3.90305215386365
