29
0 1
F           1.12851787861665    0.10674652585692    0.14058288783300
C           2.46997832325947    0.08097857777424   -0.01116268376916
C           3.22363801059386    1.12080511083539    0.50909099056255
C           4.59170109441571    1.09884999457362    0.34110659306741
C           5.20649780611224    0.03050833562035   -0.32206169725811
C           4.41695174929357   -1.00626917858310   -0.83874202704402
C           3.04729942889764   -0.98009784730701   -0.68933807860315
N           6.56982471345119    0.10793892250745   -0.50236343848706
N           7.18171019512057   -0.98734536407280   -0.72318603327075
C           8.51420069693463   -0.89697671893956   -0.98132315979535
C           9.36851487599272    0.24117941131049   -1.13600802753542
C          10.61352070921854   -0.23297047614637   -1.39089819950803
C           9.31111062881951   -2.01764305793805   -1.15663968625773
N          10.58002601340674   -1.61042592187092   -1.40136647787943
C          11.67914669654969   -2.41555939675920   -1.62635939509287
C          12.99403523672747   -2.10940581142313   -1.88952384500911
N          13.70981654589803   -3.25066524102625   -2.03799658750093
C          12.87308016140734   -4.23192075713771   -1.87348349556605
N          11.61537209560054   -3.78550067152048   -1.61908663505899
H          10.79381693503132   -4.34226425070954   -1.45342163387513
H           2.73228625684641    1.92874460343199    1.02813414646093
H           5.21013037026885    1.89071238548361    0.73343437242830
H           4.90511527565245   -1.81224531094242   -1.36514734548968
H           2.42141865642728   -1.76439411516023   -1.08627506137790
H           9.06036961902418    1.26369159823908   -1.06311786373919
H          11.53204844103429    0.28883753440745   -1.56743217816733
H           9.01945085239333   -3.04740624967290   -1.10925188134359
H          13.46396174805081   -1.15243348135034   -1.98022728055630
H          13.12415898495496   -5.27136914948060   -1.92815627816701
