25
0 1
C           0.99886266092210    0.07761605726224   -0.01547344738011
C           2.49367238201938    0.08483201507929   -0.09866000428558
C           3.20658160444503    1.27712495779206   -0.17297628571674
C           4.58248065550876    1.27656563132390   -0.26606290050607
C           5.28656238776818    0.06876985388118   -0.25996158377567
C           4.57211131282112   -1.13482661113682   -0.18692722556201
C           3.19796548175665   -1.11810098360690   -0.11440858513805
N           6.65512696333777    0.14078850973561   -0.39773433061775
N           7.32076101987965   -0.88040708429382   -0.03221902444899
C           8.66884210442804   -0.82662333389048   -0.24336468020922
C           9.46554866811733    0.14680821928670   -0.91916539580283
C          10.75988945844638   -0.27820445536883   -0.86303474209057
C           9.52991173997601   -1.82210603880803    0.20288341087517
N          10.75800883294409   -1.45232108912510   -0.18377243718881
F          11.88952169705543   -2.17808427596734    0.07294925172502
H           0.60705317196934    1.08714799757563    0.07810396163371
H           0.66870144114676   -0.50783123956326    0.84167318583799
H           0.57365769621846   -0.37747971263608   -0.91000363628288
H           2.67229705283168    2.21686155381607   -0.16277855538551
H           5.13741251166742    2.20052522296929   -0.32089441199608
H           5.12367757186314   -2.06281069368272   -0.20466904119703
H           2.65086648187303   -2.04968528997625   -0.06684957560805
H           9.09591542130236    1.03758384612772   -1.38389806741119
H          11.66819855125642    0.14443537952944   -1.24172316294359
H           9.33841313044547   -2.71857843632348    0.75444728347487
