38
0 1
C          -0.50075285609320    1.03849131709166    0.75607391327882
C           0.80853179338641    0.89308770517200    0.59467271970755
S           1.59118656560456   -0.36430569641001   -0.37392723102826
C           0.12093606093965   -1.16552975635202   -0.94589272013760
C          -1.11941710179684   -0.82297929181421   -0.62079447549210
N          -1.49302096820478    0.23103898361264    0.20803641414637
C          -2.83594858604457    0.47896355839077    0.47330273987688
C          -3.74868998672391   -0.57840774829269    0.58260133176473
C          -5.07709767262911   -0.33489205374868    0.83235748596291
C          -5.54807846683919    0.97398621145219    1.00295080543479
C          -4.63153014084973    2.03279931254726    0.89393385808534
C          -3.30709787534889    1.79005522224659    0.62929885926777
N          -6.89397805637365    1.12660297291922    1.20468694444805
N          -7.29227408415829    2.27800231277839    1.60201228174177
C          -8.64043111995944    2.42264614874853    1.72844489183230
C          -9.70775695962798    1.52000621764330    1.41833842537356
C         -10.86599465862724    2.15580376821498    1.72464030852025
C          -9.22867705538421    3.57741905089252    2.21579824723632
N         -10.57687215819149    3.40993756683020    2.21397247060165
C         -11.52430591779561    4.32061514172649    2.63475878964458
C         -12.89428868085697    4.33029520659220    2.51681597257505
N         -13.39779869983166    5.44529363083689    3.10180046258019
C         -12.37960169427480    6.10579520670316    3.56722878520432
N         -11.20589293280323    5.46944666460717    3.31264179045739
H         -10.28144236720170    5.76484591239556    3.57829018724839
H          -0.86646327152185    1.82096795007389    1.40347400595093
H           1.51039448864546    1.55072131029480    1.07487133440867
H           0.32098378566505   -1.97933514484857   -1.61934005604760
H          -1.94588698154829   -1.36078377352395   -1.06049627326910
H          -3.40308969880705   -1.59813466016567    0.49912005579397
H          -5.77670448743136   -1.15059138831197    0.92856161061700
H          -5.00120118109280    3.04181088700304    0.99637650081698
H          -2.63005143251118    2.62285749985742    0.50536430576892
H          -9.58834077068138    0.53423410467730    1.01880923778344
H         -11.88190447042975    1.82520038195784    1.64560297807315
H          -8.75205134588765    4.48039608200894    2.54046392280975
H         -13.53997369343148    3.61689490560836    2.04876722771687
H         -12.43656732127781    7.03939428058288    4.08843189124596
