29
0 1
F           1.03112948787839    0.00607148106468    0.02199129161103
C           2.37312415481588   -0.02304292573788   -0.12688285614629
C           3.12808485587018    1.01399479867391    0.39700095228224
C           4.49610906027599    0.98957181782616    0.23030053380110
C           5.10981737234284   -0.07789482841485   -0.43524184694840
C           4.31955010141018   -1.11285023273169   -0.95385583365663
C           2.94965450663712   -1.08406430450547   -0.80566703545996
N           6.47246619863858    0.00330519981815   -0.61914558785415
N           7.09148028128817   -1.08706273847213   -0.84309159918843
C           8.42234081766990   -0.98113886982594   -1.10672900077931
C           9.25164820816927    0.17820660883491   -1.26075111399812
C          10.50564557063696   -0.26538745244004   -1.52188638404414
C           9.24078095917762   -2.08332156092162   -1.28869029521025
N          10.49909677419167   -1.64383043973906   -1.53682130510502
C          11.59831682846524   -2.44558463673512   -1.76387725505767
C          12.90591726403954   -2.13725644173659   -2.02501937491800
C          13.56909169314747   -3.38083932294979   -2.16456893818065
C          12.62481477406008   -4.33945386249220   -1.97971310386929
O          11.42185266937572   -3.78068956056361   -1.73529731706395
H           2.63804683823003    1.82193035530778    0.91733172872435
H           5.11541045223618    1.77944451941648    0.62521040573403
H           4.80661004032661   -1.91939010947784   -1.48027785655108
H           2.32286238450474   -1.86680510273235   -1.20417324838220
H           8.91968495067515    1.19290397388688   -1.18231606877895
H          11.41053898264419    0.27944780810018   -1.69994132750687
H           9.00353602530532   -3.12673599968109   -1.24982213385127
H          13.34228423579068   -1.16445587356218   -2.10777027727002
H          14.60772059604362   -3.53038079797008   -2.37392654664808
H          12.66922391615263   -5.40934150223960   -1.99375860568404
