24
0 1
N           1.23058653699818    0.14488855667804    0.01320668382086
C           2.37672053379734    0.12999304622175   -0.02823338506024
C           3.78719146075986    0.11229235457543   -0.08383813258973
C           4.50010409198943    1.31621753337358   -0.10691139218815
C           5.87291360681095    1.29852892882872   -0.17868658825058
C           6.56281769692661    0.07814177134177   -0.20288148618217
C           5.84109806302050   -1.12571715758432   -0.17870062468647
C           4.46747052231216   -1.10885474003464   -0.12378341190838
N           7.92233288850290    0.12559944095435   -0.37186467823718
N           8.61340414698957   -0.84452462813078    0.06539535935334
C           9.94607358565125   -0.81279112847007   -0.22641061277371
C          10.70543560188521    0.13010235521384   -1.00327898054914
C          11.99096510762035   -0.28874760954398   -0.99519157113703
C          10.82785924203096   -1.77441615297002    0.22029170657873
N          12.06959121063796   -1.45375920463782   -0.24839192699962
C          13.18083474762978   -2.14198793610801   -0.02761757353631
N          14.14499964965996   -2.72990580037488    0.15861984029122
H           3.96206465377382    2.25221443159275   -0.07690156063856
H           6.44027143360407    2.21616632635188   -0.19509781243454
H           6.38960879871076   -2.05476640456955   -0.22023494104466
H           3.90548409790920   -2.03139456756673   -0.10703742110144
H          10.30406353958973    0.99652280678128   -1.48757665714808
H          12.87112673999946    0.12424701518179   -1.44798788034126
H          10.65644204319017   -2.64300923710407    0.82415304676331
