32
0 1
C          -0.50407508269149    1.04780837157232    0.75059462040689
C           0.80456942132236    0.89296106604793    0.59080519894143
S           1.58087773771623   -0.38604483210000   -0.35011050258685
C           0.10931530467105   -1.18561265890422   -0.91442910045960
C          -1.13012959645018   -0.83360253710463   -0.59546558611912
N          -1.50010962566261    0.23250413094690    0.22008461068826
C          -2.83990813873333    0.48563424767671    0.48272319670058
C          -3.75714953132677   -0.56955582254249    0.59149049659515
C          -5.08511635851105   -0.32202317049320    0.83527789486714
C          -5.55306554075723    0.98982467522648    0.99666344439910
C          -4.63243217406936    2.04675132108513    0.89119270528924
C          -3.30812285071644    1.79956055502783    0.63600152569942
N          -6.89746922733188    1.14741745631182    1.19124140925168
N          -7.29803845595924    2.31219960166907    1.54405940329235
C          -8.65047965018603    2.45360498445946    1.65886870573025
C          -9.70655103917893    1.52360466270147    1.35810327296285
C         -10.87808807237701    2.14357630348988    1.62326970323984
C          -9.24842978882140    3.61324731070672    2.09917379270437
N         -10.60555234768272    3.42309093825180    2.07991949810273
C         -11.51523402302229    4.31302010323668    2.43898787294971
N         -12.30871535027789    5.08056914622366    2.74530981191055
H          -0.86494355906917    1.84428842501480    1.38315327952621
H           1.50907129137101    1.55770690063499    1.05752545456836
H           0.30515817096038   -2.00657715953793   -1.58039191407891
H          -1.95804476279660   -1.37097617241778   -1.03263283227880
H          -3.41396384696365   -1.59049191426585    0.51492761224772
H          -5.78733761529549   -1.13530791490883    0.93238371611988
H          -5.00079094173231    3.05660231326994    0.98881226124682
H          -2.62906620824558    2.63062183522240    0.51384864694645
H          -9.56287011570312    0.52886623850353    0.98975184887751
H         -11.89274929378812    1.80720568946015    1.53464815458894
H          -8.81406872868994    4.53704590553059    2.42355179767115
