32
0 1
C           1.02370892966004    0.05810779633562    0.33757005332142
C           2.51241577386186    0.01659073773705    0.18111988775226
C           3.33814155382373    0.87493145188330    0.89949393744454
C           4.70748551546351    0.84250017354570    0.73809356213277
C           5.29084410080863   -0.07647147392054   -0.13894349891252
C           4.46168161001961   -0.94210491305277   -0.86547948652013
C           3.09607936346662   -0.88625851767756   -0.70615112640988
N           6.66005977295575   -0.02326514423717   -0.28521979136998
N           7.21516495872734   -1.05119106714314   -0.79486108322234
C           8.55654280536416   -0.97079438153498   -1.01371094687940
C           9.46563091131790    0.12864969052565   -0.87578125457144
C          10.69041380682172   -0.32306945517177   -1.24249335532504
C           9.30194324613612   -2.04458070184867   -1.46613896068539
N          10.59362295180605   -1.65156937499672   -1.60024849712529
C          11.63520145957095   -2.45047615817792   -2.02278617551895
C          12.94836984527422   -2.11501095647322   -2.19785224830217
C          13.72988874542714   -3.20316821473573   -2.64228220437128
C          13.01273053397357   -4.34263538917502   -2.79935441693561
S          11.35131945030346   -4.12348447038376   -2.40762703664481
H           0.73205635349436    0.74691974475016    1.12634330493550
H           0.63869994224825   -0.93234664123701    0.57690805840990
H           0.55520399574145    0.37890009403448   -0.59283724527421
H           2.89819708653464    1.58083028148325    1.59017121974051
H           5.34949962043512    1.50615022420976    1.29697691002899
H           4.92016663709433   -1.63527693042135   -1.55480842284719
H           2.46095346500966   -1.55165101405338   -1.27490206339937
H           9.20454636934147    1.11411634707088   -0.54833547370205
H          11.62965865511036    0.19094007533474   -1.27926777910460
H           8.98701739998768   -3.04539036226890   -1.68451175509704
H          13.35045203589738   -1.13505389215036   -2.02062158841901
H          14.78496730490879   -3.13266045118273   -2.83581306476168
H          13.34897579941404   -5.30725710706785   -3.12190945836657
