34
0 1
C          -0.49835712713900    1.05395584868844    0.74500616354982
C           0.81163252143648    0.90841103592148    0.59061188503615
S           1.59998509053860   -0.37700025184010   -0.33866144998370
C           0.13102971454095   -1.17817336792764   -0.91904190411354
C          -1.11019703826483   -0.83040653980278   -0.60340946765307
N          -1.48613582849171    0.22897101911792    0.21665803520797
C          -2.83229148599547    0.47165364870680    0.48153202003794
C          -3.73121701488979   -0.59279457124577    0.62181702889969
C          -5.06270575729569   -0.35862362844125    0.86750150772591
C          -5.54736937532661    0.94818130888608    1.00737711475696
C          -4.64392782720759    2.01375118777335    0.86922732772056
C          -3.31705810632943    1.77994377577309    0.60450921101224
N          -6.89781275513653    1.09949133076260    1.19095075391124
N          -7.29824464216507    2.23816526671926    1.61616428554579
C          -8.64666162494727    2.40035306218638    1.70631773955293
C          -9.71668764292171    1.53108553127220    1.33177781313763
C         -10.87192102220188    2.18587288459061    1.62444929119956
C          -9.23533188609860    3.55243834962405    2.21255377080063
N         -10.57339724253686    3.40952317449756    2.16020875648515
C         -11.54795924519042    4.37401344994990    2.58252416265731
H          -0.86872274558722    1.85547476260941    1.36614931071079
H           1.51127410292116    1.58323313926634    1.04970038355786
H           0.33429608528917   -1.99321010768859   -1.59011915665394
H          -1.93632511370015   -1.36695293509717   -1.04595325222409
H          -3.37265119020260   -1.60993240727732    0.56204457885679
H          -5.75222132302167   -1.18026035884372    0.98495657319499
H          -5.02528699321863    3.02060410085322    0.94883186551492
H          -2.65000327438255    2.61724097792652    0.45794545002334
H          -9.60551116418862    0.55646827735521    0.90274978761767
H         -11.89314640128043    1.88233727950526    1.49584809910870
H          -8.77000576387388    4.43667638905763    2.60036626232556
H         -11.04412348254766    5.23246406004979    3.02287486418046
H         -12.21902128288802    3.93771090219005    3.32592888912902
H         -12.14687315769721    4.71324340488166    1.73338229917054
