23
0 1
F           1.11524732711120    0.22761886389720    0.29739211885449
C           2.45076283016975    0.16809049780869    0.12984525090039
C           3.24904008060843    1.09986473520068    0.77462475404921
C           4.61399555649880    1.04554299880012    0.59037290411166
C           5.17858738339994    0.04974768181076   -0.21511249331834
C           4.34586143087541   -0.87922350360899   -0.85502733143987
C           2.97982670018652   -0.81785316763538   -0.68822943213716
N           6.54416398147723    0.09364777003425   -0.38982300911074
N           7.10349288784132   -0.96982369917023   -0.80516940153591
C           8.44392042426397   -0.88772369803451   -1.04802231414557
C           9.32592820153726    0.24834854063123   -1.03203135176698
C          10.55983720598986   -0.19789324149272   -1.35862632238634
C           9.20334121580262   -1.98556556776745   -1.39094835451111
N          10.49061986676841   -1.56503199987619   -1.57567000214005
C          11.51591129422035   -2.33670313828570   -1.90464497509459
N          12.40633558775840   -2.99858988818669   -2.18663311616313
H           2.79391478983944    1.85108712119930    1.40055725801830
H           5.26686844940284    1.75325152232558    1.07643868895764
H           4.79815977419389   -1.62784373323504   -1.48723157518204
H           2.31980786444547   -1.51714214027014   -1.17747942510553
H           9.03392971040070    1.25320177901201   -0.80557699485162
H          11.49402176457822    0.31880829287682   -1.46203453899274
H           8.92149567262998   -3.01329602603357   -1.50289033700996
