26
0 1
N           1.33396459251875    0.19128804231644    0.27699680795611
C           2.47553060499221    0.11463439565415    0.18269922643538
C           3.87658713059030    0.02067928467958    0.06430400485981
C           4.70277862656647    0.84887825261068    0.83382463065288
C           6.06797375878504    0.76923576797052    0.70556424991642
C           6.64511928863276   -0.15710770484087   -0.17664847184055
C           5.80947269364808   -0.98622542674965   -0.94350842329394
C           4.44319283107813   -0.89566736234563   -0.82756818836109
N           7.99624191481637   -0.10510375383355   -0.36950410292798
N           8.62737734610241   -1.16902433917499   -0.65047500683197
C           9.93387212794965   -1.03916932288307   -0.99822787558363
C          10.74613770070189    0.12226231039936   -1.18094093760147
C          11.97686400576105   -0.32067346795099   -1.55064109961002
C          10.74488558229177   -2.13575849293492   -1.27644022667967
N          11.96655001191758   -1.68930665438334   -1.60783557377985
C          13.09845644087187   -2.49710871432883   -1.96230510219985
H           4.25546182629198    1.55359076930262    1.51973131470565
H           6.71682293465898    1.39989244729027    1.29359250155409
H           6.26751580202263   -1.68153995805229   -1.63129133586470
H           3.79807614598116   -1.53225439435343   -1.41627537121561
H          10.42767368104096    1.13560113255074   -1.04632127508808
H          12.86956639365171    0.22712440517195   -1.78240206725211
H          10.49891320470477   -3.17851328313658   -1.25196822897544
H          12.79936180961686   -3.54229940678013   -2.01285040240138
H          13.89290989227432   -2.39217146008522   -1.21943444835664
H          13.49197365253310   -2.19313306611247   -2.93444459821598
