29
0 1
F           1.03425818354320    0.18352389501154    0.05461944465794
C           2.37683389296922    0.15832625079905   -0.08892296220673
C           3.12589837681753    1.20210737798408    0.42979934709849
C           4.49513066368974    1.18110670935208    0.27004865686643
C           5.11472544158155    0.11067871873355   -0.38464630745142
C           4.32993526520148   -0.93057613740842   -0.89946853730540
C           2.95957517881382   -0.90612516570428   -0.75715597368185
N           6.47967094487430    0.18846093990069   -0.55925663376217
N           7.08678121517090   -0.90727466325366   -0.79007748475922
C           8.41911991928528   -0.82496782291338   -1.04652391640928
C           9.27913704366998    0.31164528914724   -1.19917742103088
C          10.52127054365969   -0.16618502015925   -1.45763513397294
C           9.21127206489950   -1.94655848012080   -1.22690631479167
N          10.48138690274885   -1.54512188084987   -1.47214868836057
C          11.55723756173490   -2.38002021654968   -1.69508387210594
C          12.85728688059994   -2.04355746385031   -1.94813995125137
C          13.68368409546556   -3.17436612024082   -2.12184616443430
C          13.01250188206337   -4.34596447056483   -2.00074204127590
S          11.34159989851540   -4.10635532420875   -1.66923859663616
H           2.63039010783286    2.01220309208728    0.94154317370949
H           5.10971635384782    1.97622318190931    0.66193525135084
H           4.82311506858593   -1.73909317087022   -1.41704985925815
H           2.33743334793811   -1.69426853030244   -1.15231249684302
H           8.97637047915931    1.33579721317027   -1.12311185541142
H          11.43697945465562    0.36088679648787   -1.63393994716567
H           8.93863603447136   -2.98209779916739   -1.18591031004379
H          13.22018380770641   -1.03471646130087   -2.01001214016697
H          14.73656545843254   -3.11052653678051   -2.32859846118420
H          13.38877393206587   -5.34545420033757   -2.08426080417420
