28
0 1
F           1.00240560973599    0.30609375720269   -0.06142569833379
C           2.34031393287461    0.21605564179530   -0.20861178537412
C           3.13648845185447    1.25170093422712    0.25361955961927
C           4.50259129791073    1.16270183797251    0.09051066397397
C           5.07041927421337    0.03410190510318   -0.51142862132751
C           4.23930457679088   -0.99725563988419   -0.97054659723970
C           2.87249986033303   -0.90571011878657   -0.82451817372949
N           6.43844810697653    0.04373680475198   -0.68091958910238
N           6.99261703425858   -1.08126978721765   -0.89899705081888
C           8.33485354975090   -1.05319968951125   -1.13459838109265
C           9.25553906026066    0.02776714428737   -1.25949559346208
N          10.46177068152459   -0.41442113900357   -1.49900446322021
C           9.11654896661515   -2.18708083308607   -1.32428977111285
N          10.37450152639803   -1.75769534367760   -1.53517341505540
C          11.50392724549288   -2.51544797868698   -1.76451336842142
C          12.76869939887040   -2.04963831354390   -1.98099789787555
C          13.69250341698243   -3.09697589609588   -2.17669100587709
C          13.12304785629713   -4.32669930969907   -2.10743923891664
S          11.43185323961715   -4.24831662927867   -1.79881318440614
H           2.67898821432608    2.10739472722530    0.72493703909885
H           5.15433019076174    1.94850736395569    0.43850404103155
H           4.69380372329583   -1.85130809641702   -1.44897271336045
H           2.21407299281886   -1.68456797071242   -1.17680143392382
H           9.05285883861315    1.07634126745083   -1.18244695551745
H           8.85554283112172   -3.22535174459022   -1.31659551433123
H          13.00540213628439   -1.00278695478077   -1.99480319531440
H          14.73919283998013   -2.93807362109935   -2.36155504228110
H          13.58649514604014   -5.28639231790101   -2.21726261362930
