21
0 1
F           1.11865016530286    0.13401312953153    0.12954692202151
C           2.46488243453796    0.12169537455359    0.04698056746025
C           3.14344836948891    1.32817075443493   -0.01909293482424
C           4.51834787172084    1.31221331719801   -0.11765153931637
C           5.21220461535714    0.09702856674898   -0.12536832295740
C           4.49899744427393   -1.10748728970895   -0.05824660400833
C           3.12339234687118   -1.09721918507174    0.02238011593734
N           6.58042364624196    0.16418222103277   -0.28138944305913
N           7.24939806565236   -0.85309950110109    0.08224165518038
C           8.59435879382795   -0.80348521085613   -0.14919951722331
C           9.40829666409256    0.14552502292661   -0.82980218768863
N          10.66353385013783   -0.22807994395353   -0.81576696578285
C           9.49171990711518   -1.78142441946564    0.27143281579478
N          10.70113249493483   -1.38628257107606   -0.14834469203102
H          11.58543371699492   -1.85244906577974   -0.01580888204894
H           2.59045463799806    2.25403639072771    0.00069713884095
H           5.08057608967360    2.23108198734054   -0.17057963457277
H           5.04878429027627   -2.03586825544570   -0.08524598209112
H           2.55434582656075   -2.01282194979679    0.06744824525353
H           9.10063575437576    1.05098360019216   -1.31074673904867
H           9.32894301456530   -2.68322297243164    0.82421598416387
