24
0 1
C           1.03620877878177    0.05249189218167    0.13437696770086
C           2.53149359945683    0.04798460408862    0.06079345312794
C           3.25401875017890    1.23461854849327   -0.00926335115298
C           4.63042868262090    1.22300137892848   -0.09261395421352
C           5.32434350342468    0.00961018228779   -0.08281207053645
C           4.60055871441662   -1.18845912189649   -0.01509359873503
C           3.22628423491972   -1.16055886169331    0.04968629795938
N           6.69527049146607    0.07541782531417   -0.20680971336279
N           7.35015145411261   -0.95963813707718    0.13587157600708
C           8.70227734808157   -0.90451817643839   -0.05898362326589
C           9.52839758955964    0.05240352498783   -0.71211279674893
N          10.78484263328561   -0.31875213926461   -0.67704065842181
C           9.59161970227993   -1.88447347552514    0.36961764975546
N          10.81082497998848   -1.48221948994702   -0.01921178779931
H          11.69243528625681   -1.94874298472274    0.12759064831857
H           0.65185893976672    1.06511520834288    0.22474657996677
H           0.69578823105373   -0.52994021529557    0.98949947925226
H           0.61348974325644   -0.39984823899728   -0.76267641705008
H           2.72730296193907    2.17854038661959   -0.00340369502770
H           5.19367452147528    2.14199749684227   -0.14482020629803
H           5.14392743972590   -2.12142530292992   -0.02930205187932
H           2.67158109241069   -2.08772320289160    0.09457657467609
H           9.22828482848733    0.96089663455030   -1.19222880124898
H           9.42152649305468   -2.79148833595771    0.91170349897640
