24
0 1
N           1.17305378882822    0.10590320202509    0.11560614730210
C           2.31877446277556    0.06739725704382    0.06692043251370
C           3.72747252936235    0.02388687845890    0.00928500056016
C           4.46511819939023    1.21351303745189    0.02511885828112
C           5.83713376178725    1.17154879282468   -0.04220481523875
C           6.50507391458922   -0.06035110714758   -0.10086348291644
C           5.75859947365997   -1.24948392940297   -0.11846650027024
C           4.38540910032425   -1.20763844143593   -0.06778926081207
N           7.86285107830076   -0.03849154399250   -0.27506123399998
N           8.54813082043012   -1.00590658103950    0.17636460186805
C           9.87518362616060   -1.00627238176265   -0.12952695620574
C          10.67373113642812   -0.10894960965815   -0.88562177459694
N          11.92477150805051   -0.50799080217765   -0.89913994395178
C          10.77235375748202   -1.99113640304091    0.29540864933188
N          11.96317906930762   -1.63946771445929   -0.19317853151086
N          13.14359256828221   -2.34313290825185   -0.06870891372974
H           3.94574516178464    2.15895953118325    0.08224449451413
H           6.42162391617636    2.07851501903611   -0.02887505089114
H           6.28808841154568   -2.18809150923812   -0.18665175014624
H           3.80618164740564   -2.11975465860405   -0.08104254775940
H          10.36978663716196    0.78487209142045   -1.39070257597819
H          10.62458884061143   -2.87025742261540    0.88642339107734
H          13.50086141956258   -2.31039634267285    0.88452905838928
H          13.82226517059265   -1.92643445394466   -0.70168729583042
