29
0 1
N           1.20878737729877    0.36678031275260    0.27677318043120
C           2.34732866303010    0.29130758727971    0.16008810218528
C           3.74796113688638    0.19627485008178    0.01694301522280
C           4.57328667264227    1.20118899090716    0.53374777590584
C           5.93696257732701    1.11334851234236    0.38360864607449
C           6.50636754293795    0.00836153674009   -0.26439281894606
C           5.67224790297692   -0.99457888974922   -0.78272629370901
C           4.30763750689963   -0.90037599581639   -0.64607487601214
N           7.86294606605748    0.02408152266186   -0.46473228753434
N           8.45760357494365   -1.09062896342942   -0.59039870278150
C           9.78310204792529   -1.03824585732490   -0.90141416049021
C          10.66010750125267    0.05886058676064   -1.13389357689060
N          11.86796968326831   -0.36484911319279   -1.40502496111830
C          10.58930175340592   -2.16231640478323   -1.06272384054031
N          11.81796328635811   -1.71115718574606   -1.36377864238889
C          12.96147196233929   -2.43998185289630   -1.62222416116164
C          13.22708893195267   -3.78712935407943   -1.68877895575071
N          14.53580544178448   -3.96948902634419   -1.98455636322668
C          15.05922843771294   -2.78098714652589   -2.09713947761552
N          14.14353833232941   -1.80626628403056   -1.88590668889812
H          14.24788574023413   -0.80396608535032   -1.90749566941718
H           4.12864707561959    2.04447951479439    1.04134478471584
H           6.58948930674586    1.87693211441497    0.77773553317688
H           6.12760104545920   -1.82693682220782   -1.29802099312980
H           3.66024368970122   -1.66908137743745   -1.04255635707172
H          10.43175214280861    1.10458594644328   -1.10222508576970
H          10.35793654965041   -3.20342243440264   -0.98448000449111
H          12.56955444161580   -4.61924083808874   -1.54573572222292
H          16.08636360883638   -2.58569784377355   -2.32772139854573
