30
0 1
C          -0.47659038362625    1.04564858019664    0.73157607525448
C           0.83119002819664    0.88878520055365    0.56551188103449
S           1.60217935909259   -0.40499164711455   -0.35863810047682
C           0.12771215660193   -1.20851724977887   -0.90851541691185
C          -1.11011260323426   -0.85362207653389   -0.58575667074960
N          -1.47551744044348    0.22053623180632    0.22171357532806
C          -2.81317005021544    0.47403228091513    0.49127103743493
C          -3.72702981898149   -0.58247851886963    0.61870024068047
C          -5.05360421500909   -0.33581060549004    0.86953037317633
C          -5.52422014510011    0.97692512412393    1.01738335636352
C          -4.60723121277208    2.03520831120246    0.89322985802725
C          -3.28390537803818    1.78862250766681    0.63308713198934
N          -6.86751373518580    1.13028779334046    1.21983038043619
N          -7.27471678554750    2.29980164634031    1.54516849551867
C          -8.63132512112243    2.42705819029278    1.66485656026685
C          -9.68742738273130    1.51983979130726    1.38484489750739
N         -10.85743601358260    2.07533636581160    1.62236331820495
C          -9.27450135450116    3.58730610957495    2.09590931055748
N         -10.57262075890464    3.28266898170964    2.04045472753290
F         -11.58298229476413    4.13056748587798    2.37589239856861
H          -0.83349895899812    1.85285580715810    1.35260019082881
H           1.53783554526609    1.56262850747841    1.01558764305753
H           0.31945186056986   -2.03497675579568   -1.56905909375142
H          -1.94051943247134   -1.39431668180388   -1.01406250047050
H          -3.38130200848924   -1.60314965916051    0.55138621695526
H          -5.75359521667182   -1.14901997584474    0.98120648208453
H          -4.97736325355736    3.04533825549892    0.98038274669580
H          -2.60813516277299    2.62014980398354    0.49683830735227
H          -9.61794144356387    0.51522117521566    1.02285749845471
H          -8.90774877944236    4.53697502033689    2.42114907904874
