22
0 1
N           1.22509066461246    0.14021434547596    0.25838870258059
C           2.36900893678620    0.12811719958641    0.17637463828136
C           3.77780256991913    0.11247572717331    0.08075640350659
C           4.48571675682678    1.31793156835694    0.02283412927187
C           5.85717476260952    1.30252756097168   -0.07830702140004
C           6.54890496466084    0.08347508577561   -0.09734294592031
C           5.83236759706258   -1.12198881992942   -0.04427002625309
C           4.45986606724196   -1.10765649753813    0.04037452944696
N           7.90892788162800    0.13888066432627   -0.27441918814152
N           8.59860484966261   -0.83726646350800    0.14934316567825
C           9.93591455471375   -0.79326998454523   -0.12791934588350
C          10.72034107451199    0.13976410618793   -0.85915000527418
N          11.98370864185291   -0.22396504503565   -0.86796239245458
C          10.84996555076117   -1.75661961214416    0.30419814366169
N          12.01785724616509   -1.33650194536541   -0.17716041338624
F          13.20145453283940   -1.97513458581838    0.00016671023295
H           3.94548150869585    2.25268902571688    0.05093279898487
H           6.42258420037562    2.22034470770023   -0.12119685253102
H           6.38199850021448   -2.05025077356967   -0.08585957508277
H           3.90049879071782   -2.03102817217311    0.08100277420171
H          10.40003954271986    1.03172442245155   -1.35679927028952
H          10.73550080542196   -2.64758251409559    0.88408504076990
