33
0 1
C          -0.49218677214647    1.00867419809004    0.77875185784499
C           0.81804484998482    0.88941344055732    0.60441200545677
S           1.60985679130075   -0.29860578466567   -0.44079029654229
C           0.15240483364107   -1.15206266898079   -0.96901634907277
C          -1.09097802747132   -0.83899383833877   -0.62640201634381
N          -1.47670117756538    0.21563515107223    0.19577889921259
C          -2.82095327966418    0.46187896640093    0.45447046100413
C          -3.73948381055419   -0.59049424517043    0.55718053973226
C          -5.06543397164114   -0.33898758102950    0.81435670306425
C          -5.52734876694877    0.97202902123881    0.98723218892894
C          -4.60664857744352    2.02675033256990    0.87727059235272
C          -3.28340810719620    1.77581814681800    0.61545887506557
N          -6.86988514353228    1.12280575085401    1.22821577567474
N          -7.26826312023197    2.30605636418670    1.51194419706583
C          -8.60846667243326    2.43822163072899    1.73015062323410
C          -9.67078535133633    1.49457178878186    1.71219638202843
N         -10.81134661497453    2.07690156160002    1.99745998927420
C          -9.23506153000183    3.63997324173046    2.05343953495102
N         -10.53934063587107    3.36976230232261    2.20233680778023
C         -11.59637597337967    4.28579110305027    2.51698582304138
H          -0.86639072596357    1.74694659909894    1.47233369618102
H           1.51433503322058    1.52387912894121    1.12271547166855
H           0.36354009531094   -1.97340614677412   -1.62971663152411
H          -1.90975571076059   -1.40765828376737   -1.04033167353381
H          -3.40187328651026   -1.61230905320719    0.46738275720571
H          -5.77134676343889   -1.14940666476070    0.90885306542125
H          -4.96940476048277    3.03750015734484    0.98607781265685
H          -2.59798863687089    2.60286959594641    0.49850654059682
H          -9.61646668478210    0.44505879878699    1.50811717389742
H          -8.83069167270007    4.62350794584591    2.17887592537368
H         -11.29749227653713    4.94381107823418    3.33277050871226
H         -12.46507923689022    3.70236711976052    2.81411966195723
H         -11.85674431612907    4.89268084273503    1.64652309763401
