31
0 1
C           1.05846468009254    0.18760998739249    0.17957321176799
C           2.54474763383613    0.09645272373683    0.02682669437073
C           3.39280248222067    0.98704410002699    0.67716059056197
C           4.76010147226632    0.91132633606068    0.51378798311059
C           5.31715141962899   -0.08153765645550   -0.29787368372238
C           4.46597112274222   -0.98293124994548   -0.95279008456556
C           3.10320100100861   -0.88531399465513   -0.79114771517960
N           6.68671599745619   -0.06439308004375   -0.44586016657731
N           7.21885010711341   -1.11007984341176   -0.94330263409912
C           8.56657634049861   -1.04988690175302   -1.15129256748075
C           9.49565252089348    0.02565217030971   -1.03858584743034
N          10.70190856989905   -0.36276095408198   -1.36335204851540
C           9.33889590740989   -2.12235922307583   -1.57722938570797
N          10.60419502604480   -1.66567239291332   -1.68392251182550
C          11.72594803930896   -2.37455477703824   -2.05923135407709
C          13.02471789279383   -1.96966647267838   -2.19263231975660
C          13.73629614170994   -3.12569130167237   -2.59533087735772
C          12.82345501576577   -4.12992972708340   -2.67432673212649
O          11.59207774750050   -3.68242157539461   -2.34879984776628
H           0.78594092695765    0.92630568642513    0.92895336286100
H           0.64520328119708   -0.77722065249410    0.47017607552755
H           0.60044786423027    0.47138139808585   -0.76811601896443
H           2.97215636753622    1.75257223312188    1.31418385799443
H           5.42087733646908    1.60019072758552    1.01737898861165
H           4.90485709094727   -1.73656972445402   -1.58939233584302
H           2.44981139049798   -1.57769045731167   -1.30418461629485
H           9.29777731912952    1.03596483169417   -0.74362235963303
H           9.07737871974003   -3.13746601833104   -1.79218011378479
H          13.39948834796654   -0.98307238666355   -2.02280442350694
H          14.78529698427048   -3.19328909456276   -2.79672331210315
H          12.90930525286793   -5.16498271041933   -2.93678980848766
