27
0 1
C           0.99624965782698    0.01100488994876    0.09611861698575
C           2.49203501202110    0.00582673610183    0.02674703505513
C           3.21591330101251    1.19167549489684   -0.03974052993661
C           4.59267960382735    1.17915443489582   -0.11963897525674
C           5.28570345862310   -0.03450580584508   -0.11046761129621
C           4.56028719214806   -1.23161648898253   -0.04611068357908
C           3.18587002871859   -1.20299287479861    0.01593612485458
N           6.65740859927122    0.02676888313827   -0.23455193136234
N           7.30571416506100   -1.01089014857377    0.11582857421756
C           8.65629240355275   -0.97294265073887   -0.07722363162482
C           9.50281564608668   -0.03219731477982   -0.72225083348854
N          10.75192666553130   -0.43044730879585   -0.67950240295804
C           9.53088423087719   -1.96972269808203    0.35204899514240
N          10.75972325155612   -1.59688592479513   -0.02541716231073
C          11.99662267244793   -2.28895540980747    0.19073719510240
H           0.61204161239129    1.02398978559843    0.18350978984627
H           0.65315306365113   -0.56947766044808    0.95157258240797
H           0.57572451840841   -0.44286689273421   -0.80122688879452
H           2.69003885764124    2.13616143347860   -0.03386619077093
H           5.15639771889607    2.09808699622677   -0.16907716006579
H           5.10303914967592   -2.16499032676335   -0.06030915863901
H           2.63057620037916   -2.13001054958585    0.05851670492472
H           9.22752907215146    0.88449007618768   -1.20216254402428
H           9.33790759001035   -2.87480519705006    0.89058135032450
H          11.81063395457742   -3.19419877652331    0.76445246098551
H          12.68955616443539   -1.64525865310291    0.73471433045318
H          12.45050620922030   -2.54892404906620   -0.76710805619230
