26
0 1
C           1.06979113861057    0.20582086754085    0.01939294013725
C           2.56546790327839    0.16728139886568   -0.03890283771394
C           3.31305810303807    1.33586950148257   -0.14059766258351
C           4.68931085465202    1.29265325097845   -0.21511758217962
C           5.35814786252811    0.06601067202570   -0.16725916583462
C           4.60874874806663   -1.11383878145985   -0.06420043193651
C           3.23504354197908   -1.05502291293255   -0.00636427428005
N           6.73005978110904    0.10371038629299   -0.29102021118444
N           7.36451814320361   -0.94699927105633    0.05086380424299
C           8.71738944274284   -0.90928438743633   -0.12992077675793
C           9.57245137224718    0.09348478991345   -0.65483088390379
N          10.82459140989104   -0.30378092456757   -0.62249771633198
C           9.57969405626291   -1.95347109757265    0.20650779667574
N          10.80981543408666   -1.53435300595890   -0.10786279374338
N          11.98045712298029   -2.25743537260455    0.03066270355094
H           0.70758955508868    1.22769742199359    0.09742281082744
H           0.70649602525472   -0.36219921896170    0.87468771017460
H           0.64682446339476   -0.24308040787458   -0.87946317369465
H           2.80615634913873    2.29034563475632   -0.16735613401649
H           5.27219713820100    2.19750514484670   -0.29323690059802
H           5.13253987857033   -2.05778282630201   -0.04557343557975
H           2.66066819504124   -1.96849436934872    0.06576940441645
H           9.30519023879189    1.05636473254491   -1.03870329443296
H           9.39190264290520   -2.91554436739290    0.63396967327653
H          12.30107847912104   -2.25503345352023    0.99834912836619
H          12.68856211981613   -1.81515340425338   -0.55010869689642
