22
0 1
F           1.02888159124383    0.04125440925068    0.01926858675492
C           2.37209644607503    0.00650365233438   -0.05089462805179
C           3.06910510467029    1.20153477317203   -0.14125048301245
C           4.44433716903643    1.16222232005483   -0.22490725569426
C           5.11848475617479   -0.06467656256460   -0.19772139852459
C           4.38693717887790   -1.25809009673778   -0.10667741433397
C           3.01192979623798   -1.22414054503761   -0.03815457530206
N           6.48841781453074   -0.01097591842183   -0.32513610565174
N           7.13637854606682   -1.06257674895692   -0.02291732307960
C           8.48693138777880   -1.00285702560939   -0.23101765453366
C           9.29890363362984   -0.02343000337574   -0.89004079848861
N          10.55048281198071   -0.37644590321706   -0.89430687102339
C           9.37931422735726   -1.98189408101019    0.16089689162736
N          10.60898387802085   -1.56566847541520   -0.25070697616869
C          11.75129766455246   -2.22097503691514   -0.06578015134856
N          12.71802232927640   -2.80652739030246    0.10881731581706
H           2.52912325381171    2.13516561842803   -0.15050251211177
H           5.02258593454459    2.06985544568716   -0.29587205054699
H           4.92347362747070   -2.19463330490177   -0.10529891881095
H           2.42739177769899   -2.12872656249399    0.02501872820598
H           8.97857220342955    0.89112112865900   -1.34604063856759
H           9.23498886753437   -2.90106969262708    0.69081423284539
