31
0 1
C           1.01516804374947    0.29707753379543    0.26944535795217
C           2.49649715102011    0.18169834929825    0.08882833266392
C           3.36739313361841    1.08759611704478    0.68554409578236
C           4.72989532902360    0.98774352264669    0.49942194442177
C           5.25952443376630   -0.04425639444609   -0.28122207179154
C           4.38539099195092   -0.95902950739998   -0.88487280138885
C           3.02737162772236   -0.83775240707885   -0.70092260297432
N           6.62739348473464   -0.05278371518143   -0.44344804289544
N           7.14057181443066   -1.11667036485130   -0.92131231330680
C           8.49122759971800   -1.08094136938832   -1.12329091246261
C           9.43774417668261   -0.02865818138297   -0.97899981681475
N          10.64068583351411   -0.43863227027108   -1.29532560455001
C           9.24665753980061   -2.16378899125105   -1.55845229478469
N          10.51987114999543   -1.73467679939749   -1.64290576051951
C          11.64296379781498   -2.44240801099679   -2.01936705482214
C          11.85539327246873   -3.74348038931733   -2.40714097052333
N          13.17332078376817   -3.92295386220404   -2.66692089778473
C          13.75275887508947   -2.77646967073810   -2.44748972354938
N          12.86617793684377   -1.83311808281172   -2.04934049517731
H          13.01008947362667   -0.86563556164694   -1.80668199780646
H           0.76917963237580    1.04708766475369    1.01675061654497
H           0.59232957905289   -0.65824033359929    0.57666019936296
H           0.54340915450266    0.58003131435275   -0.67173908657407
H           2.96854279689591    1.88259122698244    1.29962264338235
H           5.40881345258212    1.68741462566088    0.96217393507044
H           4.80198541427494   -1.74263613119164   -1.49965573851146
H           2.35615179379841   -1.54139361963343   -1.17362969860267
H           9.25859288983239    0.97942310059865   -0.66584371911346
H           8.96029986086735   -3.16659527586203   -1.79490412774469
H          11.15524920877946   -4.54576135495795   -2.51286401517959
H          14.80050976769889   -2.58918116152540   -2.56388737830300
