32
0 1
C          -0.47185229540828    1.03657604028567    0.71895663559198
C           0.83645733732276    0.85469063969113    0.58925001952216
S           1.60710983904137   -0.48180808164735   -0.27683564375835
C           0.13068941718889   -1.26300915395472   -0.85963089607427
C          -1.10719096784251   -0.87736891417295   -0.57592587409510
N          -1.47140857570318    0.21418741831408    0.20745578803293
C          -2.81271420851096    0.48356404452886    0.45783637793291
C          -3.73143963529534   -0.56409502188594    0.60597469481921
C          -5.05876492815490   -0.30438481156816    0.84491787020523
C          -5.52089267659819    1.01257132168385    0.96741759389012
C          -4.60004956942350    2.06205992781025    0.81553941465382
C          -3.27699887134324    1.80238327572326    0.56039471789034
N          -6.86526799314131    1.18174994999951    1.17297255590938
N          -7.24769730069526    2.34589702215726    1.54112487733553
C          -8.59548974756694    2.50493530591397    1.68467882346010
C          -9.67942623568064    1.61971576961198    1.45287623043225
N         -10.82224236649543    2.20079658167103    1.74107410761852
C          -9.20244077995450    3.68027881579658    2.12703538017313
N         -10.51827675213649    3.43721881736950    2.14029849211797
N         -11.50952211062101    4.33359752992992    2.49698402750974
H          -0.83078471782921    1.86846830381484    1.30542994364320
H           1.54483603653825    1.53025174532573    1.03373324467397
H           0.32448211918098   -2.10122926510013   -1.50437799287155
H          -1.93787731384951   -1.40607199409824   -1.01891916678634
H          -3.39060122600574   -1.58786731069756    0.56251830537333
H          -5.76332674445870   -1.11157583425887    0.97179658419408
H          -4.96489754568219    3.07600234412247    0.87916464067225
H          -2.59667643661246    2.62690632532459    0.40422947160917
H          -9.64391055095359    0.61215411723378    1.09309323528625
H          -8.79058095621765    4.62151555253196    2.42251832043745
H         -11.62256043629855    4.37088710995110    3.50979673065205
H         -12.38240380678648    4.01206242859083    2.08554148994821
