28
0 1
F           1.12106738262358    0.13185672730458    0.02205996334866
C           2.46061892184371    0.08875641293851   -0.13168214083759
C           3.22888937423987    1.11937816839515    0.38684477511072
C           4.59627910081118    1.07931963164449    0.21712576053551
C           5.19555306646573    0.00089535271193   -0.44530702570438
C           4.39090645814643   -1.02590044304144   -0.96133907561551
C           3.02207025786521   -0.98074211358180   -0.81094837484085
N           6.55824056603032    0.06129790265962   -0.62381597974896
N           7.15119309114617   -1.03722958813951   -0.86201048907249
C           8.48181357829929   -0.98983218011781   -1.12434630083641
N           9.28069257957253    0.12121584517293   -1.27028285801050
C          10.46338681241886   -0.32306342270561   -1.52479872690035
C           9.24973847054703   -2.12782014584804   -1.30683442693092
N          10.51677327470242   -1.69790723970784   -1.55942933068152
C          11.64013936466121   -2.46478971799429   -1.80178532580240
C          12.94052164418346   -2.11041835375041   -2.07221483773424
N          13.69185512649900   -3.22578733192020   -2.23678152254448
C          12.88990442091365   -4.23650105466116   -2.07472240337889
N          11.62021096379187   -3.83582380125912   -1.80619196403732
H          10.81942827985480   -4.42263994934578   -1.64024470245978
H           2.74803411458301    1.93441017002056    0.90457215242660
H           5.22831332678192    1.86248481971206    0.60458609043397
H           4.86771562010511   -1.83764056269145   -1.48911717529847
H           2.38445579750039   -1.75570250060386   -1.20756493650264
H          11.32726941976032    0.28657154526261   -1.69552992970561
H           8.96105240778047   -3.15701169657472   -1.26314409358635
H          13.37371941483297   -1.13563182500824   -2.15723137612658
H          13.17576716403946   -5.26626464887106   -2.14088574549921
