26
0 1
C           1.10835314525466    0.03936677597486    0.08641464828415
C           2.60531512322447    0.04717040179567    0.04085946303699
C           3.31842317666315    1.23928939832695   -0.03630884952060
C           4.69555016451187    1.23900411311488   -0.10253557713615
C           5.40273033085304    0.03276135958800   -0.06755171096106
C           4.68669086340569   -1.17033847685172    0.01263169015022
C           3.31140060754610   -1.15461559936287    0.05925582408401
N           6.76957767683891    0.10906381983630   -0.20083810077008
N           7.43943893713448   -0.90638832067093    0.17251804690365
C           8.78164705253264   -0.87950752858259   -0.03574676138827
N           9.51374540672603    0.07256122913701   -0.69573982700308
C          10.74195083686633   -0.34088718406743   -0.66690908079511
C           9.63155983732570   -1.89256822913310    0.39303123457340
N          10.86763523958573   -1.53314526569127   -0.01935639811537
N          12.05439721284634   -2.20486236403372    0.25746790685365
H           0.71473358056999    1.04864078207136    0.17627392645529
H           0.75519777121517   -0.55175010076862    0.93039748828624
H           0.70611634792788   -0.40853324155106   -0.82248803666628
H           2.78240197409453    2.17804751676578   -0.05259743799319
H           5.25284645187720    2.16082977232821   -0.16396742036741
H           5.23880955443716   -2.09846217013460    0.01948863460192
H           2.76422212862387   -2.08613540899673    0.11144693616442
H          11.57893816595567    0.17187241441829   -1.09884836752948
H           9.43453143078282   -2.79163805955677    0.93802903494211
H          11.89540446293910   -3.20864621343185    0.27739618198956
H          12.75342252026170   -1.97520942052407   -0.44364344807970
