31
0 1
C           1.07858935152162    0.28395131416477    0.22422099023283
C           2.56256004945546    0.18944761919752    0.05055249498470
C           3.41971651824409    1.09636490803020    0.66577326802386
C           4.78423039689508    1.01655395030338    0.48471847613003
C           5.33127198461616    0.00207807673813   -0.30757895499179
C           4.46997543280006   -0.91364520208029   -0.92952975553017
C           3.10947388588559   -0.81102592665353   -0.75221915146057
N           6.69705992982774    0.01779024810712   -0.47271089685786
N           7.22851313037653   -1.04491202655682   -0.92886107464084
C           8.56806114730414   -1.01769047063955   -1.15907253805246
N           9.41733814982905    0.06278410139234   -1.05285747595204
C          10.58621357106290   -0.37117850909952   -1.37594792115148
C           9.28880181562694   -2.12541469333672   -1.56582379855195
N          10.58070149064179   -1.70873349796526   -1.70034199075377
C          11.66849026412039   -2.47019151477907   -2.07646826375237
C          11.77948005305679   -3.79901126391737   -2.38054259930298
C          13.14701031574545   -4.00356376707378   -2.68697341465892
C          13.75419536732282   -2.79639504091081   -2.54695134276924
O          12.86249762070313   -1.85560456052946   -2.17508927310884
H           0.81880930963611    1.02646428218471    0.97433853256058
H           0.66723996969856   -0.67866423239249    0.52459831267260
H           0.60744029486737    0.56534909295795   -0.71771611441188
H           3.00737483643073    1.87725293984902    1.28917127561034
H           5.45399509636983    1.71706366249206    0.95868851320145
H           4.89965456564239   -1.68203182854972   -1.55460706804606
H           2.44863869108697   -1.51474525748515   -1.23970018137453
H          11.48328952112454    0.21459348752687   -1.40122163054446
H           8.97579667445932   -3.13023426158554   -1.75121768793557
H          11.00035569000166   -4.53167823861855   -2.38529610768721
H          13.60604631032670   -4.92746956786936   -2.97112936523505
H          14.76916856532046   -2.47932382290127   -2.67444525664669
