22
0 1
F           1.07174293310042    0.07883348065555    0.15888942755438
C           2.41513113918416    0.05549835001784    0.07450780134769
C           3.10273028528559    1.25682636144415   -0.00640611485984
C           4.47704603197571    1.22908682951757   -0.10672067094712
C           5.16132687772187    0.00687138174223   -0.10122122825343
C           4.43821974208573   -1.19296429456237   -0.01892309616304
C           3.06354810184831   -1.17040698577650    0.06267370663001
N           6.52658068195604    0.06902488195518   -0.25203774228967
N           7.18684270848785   -0.96698610921530    0.07066674862638
C           8.52796893463128   -0.93877983898427   -0.15219577104910
N           9.24393183792008    0.02669961950154   -0.83578102049427
C          10.46698404448433   -0.35258455772522   -0.82825951687174
C           9.38555644627191   -1.93175752083992    0.27128549914945
N          10.63362003911967   -1.55637313722261   -0.15637448142356
C          11.77345725868298   -2.20633368960234    0.03266624792737
N          12.76704041447199   -2.75194339773362    0.18800867057907
H           2.55538084872171    2.18620019912311    0.00279673953158
H           5.04944748572676    2.14056066683861   -0.17320180221341
H           4.98137427914427   -2.12534117764387   -0.03739825730760
H           2.48569469199414   -2.07992657491473    0.11748405188222
H          11.29244514975237    0.16514317893431   -1.27548961833547
H           9.20802006743279   -2.82816766550931    0.82795042698014
