37
0 1
C          -0.48221683694713    1.02000744833416    0.71261755247639
C           0.82531996090579    0.85994273769264    0.54883488226243
S           1.59421441334592   -0.44103535938598   -0.37010943790369
C           0.11632515361412   -1.24999420606354   -0.90880170820985
C          -1.12020788215309   -0.88760087579804   -0.59001282188381
N          -1.48243861455989    0.19620803642343    0.20483209157459
C          -2.82145228813101    0.45729111686346    0.47280878754180
C          -3.73705739402038   -0.59397741557543    0.62088014561163
C          -5.06231601015051   -0.33936866160770    0.87349257884496
C          -5.52719586220480    0.97630518063937    1.01174676134684
C          -4.60804369299611    2.02923895043544    0.86222940291787
C          -3.28726986051226    1.77466463612028    0.59236354153067
N          -6.86853266307302    1.13953787139044    1.21831784314724
N          -7.25427434643682    2.29202246069640    1.61626659838704
C          -8.59209473378741    2.47782708958982    1.74688078051684
N          -9.59957710658035    1.61169860503468    1.37649913114933
C         -10.70239152734785    2.20541301363497    1.67603925258798
C          -9.15203957529662    3.62360255756292    2.28238665492942
N         -10.50489574004238    3.44400715370913    2.24017280658190
C         -11.48191040973163    4.31053219298620    2.68530992570137
C         -11.32376130829087    5.49813684316179    3.34087532506313
C         -12.55767470857177    6.11030827630314    3.64895614600903
C         -13.62639612012491    5.38985144651007    3.22883452107223
S         -13.16135412363954    3.93374090905885    2.43807563193444
H          -0.83876545165634    1.83146776659918    1.32857803748978
H           1.53390957569485    1.53387700391982    0.99557394303638
H           0.30716556055215   -2.08597767275127   -1.55735115379251
H          -1.95258968156139   -1.43247285649552   -1.00931212374572
H          -3.39431158285163   -1.61656956061708    0.56604288728071
H          -5.76601343585979   -1.14705329503471    0.99908509228657
H          -4.97475422017343    3.04175710680214    0.93678437388806
H          -2.60925135262938    2.60116464167733    0.43609965545989
H         -11.68453124619604    1.80446892276068    1.51644130622562
H          -8.68706442617199    4.50315612472314    2.67236173681143
H         -10.37056435498440    5.92005527226262    3.59968168701165
H         -12.63878336006115    7.04951518174328    4.16524381332438
H         -14.66853474736862    5.61567135669335    3.33143435153446
