28
0 1
F           1.06916986905625    0.17130377841566    0.15870152128814
C           2.40935700481807    0.11755848147673    0.01096011002729
C           3.18092839605892    1.15695095558521    0.50638697992203
C           4.54841996759861    1.10648121243846    0.34100885176572
C           5.14461337965142    0.01006115172623   -0.29385425468640
C           4.33711962036702   -1.02621376214651   -0.78519796952679
C           2.96813560761970   -0.97115822533035   -0.63935705016031
N           6.50769116620199    0.06325234102958   -0.47373035413558
N           7.09978954538173   -1.04153089181678   -0.68498375158492
C           8.43112749615099   -0.99850343432451   -0.94533203964102
N           9.22976285479216    0.11549790466491   -1.08581960186900
C          10.41240159477071   -0.32903568901249   -1.33428012112400
C           9.19978317008919   -2.13552327128423   -1.12475127163743
N          10.46761291423261   -1.70400217356870   -1.37162442142612
C          11.58597387468003   -2.47945326961977   -1.60861033511406
C          11.67575086124221   -3.84190709396985   -1.63855929575407
C          12.98699379912193   -4.28707516723222   -1.91018776317815
C          13.86687808216186   -3.26969582975093   -2.08126651205524
S          13.12273075408529   -1.72773228940596   -1.91653105523604
H           2.70254758534849    1.98647793331530    1.00303963874952
H           5.18298431033388    1.89596825658476    0.71092987303656
H           4.81151389308004   -1.85342000946445   -1.29070104952605
H           2.32811897072820   -1.75336881588666   -1.01741160030031
H          11.28049769104682    0.27888120416682   -1.49920460715195
H           8.92199911880745   -3.16674788603838   -1.08746345152256
H          10.84661781599106   -4.50448710767837   -1.47409738914496
H          13.25703456140513   -5.32533966579235   -1.97383061179824
H          14.91526609517796   -3.32102863708089   -2.29546246821571
