23
0 1
N           1.24607141367314    0.05036145299491    0.17283082343205
C           2.39136854154427    0.02664136575790    0.11614650761433
C           3.80116042943681   -0.00556918532388    0.04493980461669
C           4.52482486059782    1.19195798727325    0.00513789210485
C           5.89630060386748    1.16092176346556   -0.08053673500527
C           6.57505614398506   -0.06693734299176   -0.09905272674390
C           5.84184411778333   -1.26451367170112   -0.05950181700741
C           4.46889112825302   -1.23378070132750    0.00614118236495
N           7.93046128549258   -0.02840581794296   -0.27817894479780
N           8.62327870935788   -0.99335007184175    0.16076959362354
C           9.95277373894016   -0.97922918411393   -0.12950226168422
N          10.63050862752064   -0.04817953373520   -0.89378792905911
C          11.85744520829283   -0.41498424308198   -0.91119886073788
C          10.83696033930004   -1.93822920975315    0.31762139626888
N          12.06120014459959   -1.57896986993897   -0.18270510482070
C          13.21375703471692   -2.21251426516949   -0.00983814589272
N          14.21700979247275   -2.74444895210293    0.12788224398005
H           3.99506825640864    2.13268684122673    0.03212570540264
H           6.47478755107118    2.07076420985488   -0.11197772973942
H           6.38044437137546   -2.19928752104522   -0.10102974612678
H           3.89778487742040   -2.15042064323565    0.03366003578809
H          12.65837791424606    0.08885508535262   -1.41498950341603
H          10.69063490964381   -2.80722849262023    0.92468431983523
