31
0 1
C          -0.51597612094990    1.06147413045502    0.71674438700530
C           0.79163605602171    0.89816197515536    0.55425423567211
S           1.55966320052046   -0.41311230978672   -0.34614068833444
C           0.08412913900861   -1.22433862650587   -0.87925821069728
C          -1.15332602058394   -0.86005981998954   -0.56500453914929
N          -1.51708333239714    0.23098406611789    0.22022077467339
C          -2.85349174716901    0.49254939629147    0.48500874405311
C          -3.77287935711520   -0.55890836463022    0.62201814747657
C          -5.09778662622219   -0.30378512341347    0.86976470469157
C          -5.56347799606669    1.01314097428919    1.00671582467673
C          -4.64061289571474    2.06666706974057    0.87110267296103
C          -3.31897735640749    1.81120462436238    0.61251638716042
N          -6.90324834146167    1.16876097963821    1.20633661048776
N          -7.31195997245594    2.33724212447288    1.53375402824038
C          -8.65669342368068    2.49182293119480    1.64708787156570
N          -9.63298571460745    1.57378799100265    1.29881371964357
C         -10.76096354922878    2.12925774895441    1.54147799013493
C          -9.25699092164992    3.64145739517976    2.11320065435008
N         -10.61177689121717    3.41074285701640    2.05160381481406
C         -11.58196182845924    4.23624669216971    2.40925028118313
N         -12.43764149784387    4.93553633589057    2.70928765226540
H          -0.87035219384040    1.87953384851656    1.32483358134188
H           1.49966440920581    1.57711247147896    0.99447028863528
H           0.27420055564826   -2.06536956483773   -1.52165114301615
H          -1.98404411082934   -1.40821566730742   -0.98282426408451
H          -3.43206468252457   -1.58183459931552    0.56518367030714
H          -5.80399973177892   -1.11025731800894    0.98843002164339
H          -5.00578657105018    3.07953420723412    0.94730239531682
H          -2.63968364276788    2.63815513490277    0.46589634384717
H         -11.72699862189508    1.69224235311591    1.38182218665268
H          -8.84517021248790    4.55942608661513    2.47626185648225
