29
0 1
N           1.20435820270302    0.37986450834863    0.07670821571720
C           2.34597376988369    0.30041124055976   -0.00941194326624
C           3.74800427250355    0.19994386662721   -0.12161194516422
C           4.57125814230267    1.15491168306702    0.48773714304294
C           5.93627284464266    1.06648287014042    0.36191531223947
C           6.51492725491106    0.00531685262016   -0.35221727019716
C           5.68152811763861   -0.95094497368484   -0.95801842031275
C           4.31519639703944   -0.85110725649737   -0.84941202846838
N           7.86281998319696    0.03274592324156   -0.55817424865785
N           8.49516988287318   -1.05780952798765   -0.66752528607826
C           9.80114970059638   -0.99525448761509   -1.03124201125404
N          10.52215403148114    0.12370615663666   -1.38398740382420
C          11.70537831725474   -0.29672359245356   -1.66944597144678
C          10.61595037430223   -2.11129689484679   -1.12338750801427
N          11.83276596151435   -1.66045817368101   -1.53145208597670
C          12.96851684728789   -2.41078440776078   -1.77189844552837
C          13.09747946049217   -3.77043213855537   -1.76165497020732
C          14.41392427246863   -4.18547622782442   -2.05426738363685
C          15.25808771372495   -3.14837974704159   -2.28029496867565
S          14.47368436025270   -1.62464296565427   -2.14229977205001
H           4.12137441048079    1.96277411572080    1.04609548358971
H           6.58577570374577    1.79305059955313    0.82447329174003
H           6.14155467168726   -1.74801766401215   -1.52288828724109
H           3.67112555819845   -1.58266014456667   -1.31596845819397
H          12.52196043780001    0.32221357880700   -1.98580624195052
H          10.40101548173187   -3.13895648743003   -0.92407153027570
H          12.29149803846562   -4.45130226144389   -1.56051532408238
H          14.71318782187771   -5.21679641395144   -2.09483256037599
H          16.30125796894215   -3.17636803031600   -2.52263538145042
