32
0 1
C          -0.50486229373314    1.06152586525056    0.74074589266357
C           0.80542173327913    0.89811390960366    0.60608540929415
S           1.59093440453272   -0.42456965236998   -0.26979357911293
C           0.12215752985330   -1.22485126248435   -0.84886008939815
C          -1.11940804735154   -0.85710048713656   -0.55787366742200
N          -1.49417397817581    0.22740552661396    0.22956912280180
C          -2.83961635695842    0.48372523910227    0.47804280258449
C          -3.74468104139671   -0.57370920390737    0.64002973586463
C          -5.07617704387448   -0.32806269328096    0.86879579498046
C          -5.55679910481723    0.98504698361860    0.97014849846968
C          -4.64705814274335    2.04382247004833    0.80915294792377
C          -3.31969201182417    1.79755400957999    0.56097414394986
N          -6.90523860773429    1.14183526733398    1.13702582196146
N          -7.31013954384832    2.28565788524322    1.53725675994545
C          -8.65292778333515    2.47159611152410    1.60901206624346
N          -9.64125382073394    1.60921548781945    1.21094528209299
C         -10.76129083473831    2.21097697879898    1.46433000426606
C          -9.23377771086777    3.62942023270813    2.11359971353747
N         -10.57000490004753    3.43930588755042    2.02048640638021
N         -11.55498980676930    4.37128497415156    2.33572931257871
H          -0.87443417372155    1.88632381290604    1.33136183897430
H           1.50644935177044    1.58115298109813    1.05109338402077
H           0.32519419874450   -2.05804764214839   -1.49741506922060
H          -1.94574230032691   -1.39589860813389   -0.99716600593630
H          -3.38881235376152   -1.59294804446545    0.61049888920174
H          -5.77281984734170   -1.14049336892695    1.00290857103224
H          -5.02530647691454    3.05385449747420    0.85543781716178
H          -2.64785924412803    2.62724304286620    0.39490750933175
H         -11.73770258674342    1.81176663168274    1.26925192161175
H          -8.79692855381423    4.51780515819096    2.51798212915290
H         -11.29787107019048    4.88842199437833    3.17230258038103
H         -12.44174958228770    3.89654601531014    2.47881405468346
