29
0 1
N           1.28138412233727    0.13526508034253    0.23490689030762
C           2.42333659352221    0.07556310844391    0.13932051691520
C           3.82629535231935   -0.00149361535650    0.01815857718795
C           4.63699268623633    0.97348706711946    0.61208506978873
C           6.00283319777679    0.90468614386551    0.48024502847472
C           6.59412511949492   -0.15494400944132   -0.22524452552370
C           5.77333425235937   -1.12987533045508   -0.81798425328682
C           4.40618841109408   -1.05098416993385   -0.70217390324780
N           7.94268182162398   -0.10928939747833   -0.43024610712018
N           8.58271469333458   -1.19459961923517   -0.55399990345837
C           9.89148936801208   -1.11514865681310   -0.90448849709035
N          10.60894191026882    0.02127857536150   -1.20800186548678
C          11.79937918835459   -0.37661736103966   -1.49408536261371
C          10.71562423910719   -2.22114739395194   -1.02579773879671
N          11.93300110798054   -1.74477421239552   -1.40212077607766
C          13.07160617638027   -2.48680535401796   -1.64797981299000
C          14.34714894076866   -2.10312280404901   -1.95818378456673
C          15.07925123798660   -3.30698138395195   -2.09878674342621
C          14.20076507784864   -4.31740058608878   -1.86565327247387
O          12.97604626365723   -3.82864504651959   -1.58992734739286
H           4.17722788662096    1.78065398564941    1.16339066967061
H           6.64350644677529    1.64655072525889    0.93063381520958
H           6.24356353884149   -1.92501324117471   -1.37704896850131
H           3.77100416058105   -1.79747160195356   -1.15696902609041
H          12.61152151295549    0.26121614643849   -1.77783668911884
H          10.51971842592934   -3.26169716051798   -0.87628511112506
H          14.71814363647321   -1.10608022244603   -2.06855161478538
H          16.11766937181381   -3.39734477425668   -2.34007205743880
H          14.31049525954601   -5.38279489140320   -1.86388320694295
