22
0 1
N           1.31090548521774    0.01568700917033    0.13647777390978
C           2.45660444374275    0.00305721273930    0.08273570829053
C           3.86647078579642   -0.01665251422052    0.02339769122632
C           4.58319454931850    1.18578639128773    0.02221286753916
C           5.95537469265007    1.16600774097493   -0.05134968533821
C           6.64404225392410   -0.05590468155687   -0.09556009051455
C           5.91792357991800   -1.25848551743772   -0.09347650579256
C           4.54415640507126   -1.23842972102812   -0.04088544270233
N           7.99761510829334   -0.00845293240606   -0.27628934747410
N           8.70763932789318   -0.95259785291517    0.17571583553574
C          10.03318836672404   -0.93600984422504   -0.13550112081730
N          10.68189581677650   -0.04007955879905   -0.95228720845664
C          11.92401855904389   -0.39551541234517   -0.97915513383450
C          10.93951356993307   -1.86921376116828    0.34288849322453
N          12.11298917262295   -1.49612901989642   -0.20766315820056
F          13.29896499338823   -2.14263849874499   -0.00762480440101
H           4.04782397701782    2.12264524630440    0.06873453352502
H           6.52655261259433    2.08101666505736   -0.05371941726528
H           6.46230439743579   -2.18890650896539   -0.15382561803858
H           3.97955375560169   -2.15958695264068   -0.04226161034923
H          12.71193858648458    0.08643762568727   -1.52087627147340
H          10.83149956055204   -2.71123511487229    0.99208251140723
