21
0 1
F           1.12626419633449    0.12422924522747    0.04165075284539
C           2.47266239678450    0.11805783319825   -0.05249564301127
C           3.14557543542852    1.32766992599676   -0.12325453101908
C           4.51947260486470    1.31801118695701   -0.23385312982143
C           5.22006155181478    0.10593484558331   -0.24635951064744
C           4.51140421440742   -1.10184701744561   -0.17479786229946
C           3.13617626896209   -1.09785044649201   -0.08444558669748
N           6.58324264364466    0.17882179823108   -0.42237610212104
N           7.26660811408118   -0.82009691392867   -0.04057677131586
C           8.60428627612132   -0.79378174925024   -0.28455300783374
N           9.31156609687251    0.15060491341697   -0.98995969880626
C          10.54167223126785   -0.24047651481758   -0.96859124810828
C           9.47433769176891   -1.77608409275642    0.16169182778089
N          10.70248308115565   -1.40835667701634   -0.27914958559241
H          11.56376458098141   -1.90700643165904   -0.12300253027142
H           2.58807642328397    2.25079894363779   -0.09886747808726
H           5.07880242753751    2.23801778035009   -0.29313423171573
H           5.06505986731456   -2.02769680038133   -0.20803022005875
H           2.57112781946089   -2.01590572932756   -0.03648142013614
H          11.35909498855761    0.27515190141360   -1.43267026535528
H           9.29353108935550   -2.65795600093756    0.73912624227208
