38
0 1
C          -0.95857871072747   -0.99354489172326    0.40760369714220
C           0.32274146643745   -1.29768207411602    0.24019383585065
S           1.59401399086826   -0.16529827295291   -0.23762365767538
C           0.57306584744224    1.26679765057187   -0.42260501828303
C          -0.73002816072565    1.32041235359483   -0.17529552118441
N          -1.53222903219141    0.26524041602061    0.25021644056011
C          -2.89106995491499    0.45856542225049    0.47154679813356
C          -3.82172878730316   -0.54463468885379    0.16513206992426
C          -5.16327286544826   -0.34171802707829    0.36809621709163
C          -5.63743109277517    0.86055021387931    0.91604074067822
C          -4.70193289686646    1.86462668315820    1.22207917739164
C          -3.36216613984234    1.67012628571230    0.99513151870030
N          -6.99060711259806    0.98696916265101    1.03575238619551
N          -7.42799254448718    1.90478192606144    1.82605374052624
C          -8.76264711310448    2.10341276132905    1.85924320473270
C          -9.81754320386464    1.59229964212888    1.10032854013445
C         -10.98694514734933    2.19116832516225    1.56140037575808
C         -10.64086667555537    3.04721456847578    2.58617934809879
N          -9.29904778873512    3.00151206755714    2.76867279843862
C          -8.58988299774187    3.71608772057436    3.71715162848446
C          -8.96975848759340    4.64578742608702    4.65772878051032
N          -7.87950996982886    5.05198014533309    5.35331337153073
C          -6.86518970111741    4.39603276135749    4.85969080651849
N          -7.23952511714411    3.56561879549829    3.85971653959641
H          -6.72743997395192    2.92364822471684    3.25420278512118
H          -1.64205193889351   -1.76039963540161    0.74014689510489
H           0.68863632803595   -2.29557617001689    0.40495871318846
H           1.11225262548887    2.12425044160545   -0.78334373767804
H          -1.26283524311319    2.24103108943975   -0.36074907977911
H          -3.48930613760694   -1.47281957656229   -0.27514650604660
H          -5.88103745633355   -1.10676658800632    0.11644440143717
H          -5.05096401208356    2.80773466632472    1.61771947354773
H          -2.66362432792049    2.45233047852839    1.25548345567879
H          -9.70945898356445    0.87770140383654    0.30971972527603
H         -11.98018493337135    2.02382084108174    1.19413554029157
H         -11.26008754312663    3.67913391774922    3.19071663013626
H          -9.94048056183954    5.04228976605531    4.87301127049816
H          -5.85325564655182    4.49272476797052    5.19718261436619
