24
0 1
F           1.19531143562875   -0.03681492516555    0.28927116566148
C           2.53814635413935   -0.01038464257674    0.14860352088006
C           3.26090801251069    0.98899222324056    0.78027622735943
C           4.62954074515794    1.02137430296887    0.62319479392289
C           5.27987089518971    0.04696994550582   -0.14413892359192
C           4.51965195228544   -0.94993333523771   -0.77243220253318
C           3.14912067760761   -0.97774758772614   -0.63161184811097
N           6.63837424353620    0.18871545603855   -0.30570702298923
N           7.28626679996208   -0.85960387506387   -0.65428140355670
C           8.59593124105743   -0.74114824875755   -0.93051940613083
C           9.51826557197950    0.30843966990875   -1.04679187741157
C          10.72657849146540   -0.25380380645120   -1.42689845217254
C          10.54300635974444   -1.62756827523634   -1.52616153705851
N           9.26643348055718   -1.90645905587579   -1.23220937414561
N           8.69158248906394   -3.16549877521105   -1.14055289538570
H           2.74517013232104    1.72577807183604    1.37582361031565
H           5.22374046474932    1.78441116841042    1.10030768252405
H           5.02409447225774   -1.68212767629761   -1.38470461180591
H           2.54849404910006   -1.73239230462327   -1.11556809839338
H           9.29711939059857    1.34123295971789   -0.87045199022909
H          11.64634315584206    0.26423186968709   -1.61329875284145
H          11.23827573938338   -2.39849556169056   -1.79406388956474
H           8.71705252888771   -3.64729681180051   -2.03718751446652
H           7.72472131697464   -3.02040078560029   -0.84887720027572
