23
0 1
N           1.19741963151373   -0.14491310527552    0.17388359260144
C           2.34060451006169   -0.11102619089847    0.08580844024895
C           3.74751852392381   -0.07084769044422   -0.02166946254905
C           4.40669967486340    1.16064346160049   -0.10110418797693
C           5.77644480293531    1.19803473957117   -0.21512220225273
C           6.51748696803775    0.00780514261537   -0.22978752778423
C           5.84865210244253   -1.22430723801905   -0.15354393132200
C           4.47820443179405   -1.26322789675570   -0.05307080385513
N           7.87230265293907    0.12085152333668   -0.41621454269822
N           8.59084785515840   -0.86168633829895   -0.03340409398909
C           9.90989573545252   -0.81088539476373   -0.30100624580374
C          10.75829269708086    0.06137490427205   -0.99285233601718
C          12.04812769324659   -0.45680583808108   -0.92433871001078
C          11.99521077859180   -1.63373912683754   -0.19942952555741
N          10.71648696161110   -1.81789823342696    0.15420020374863
F          10.28495786065624   -2.88254351522445    0.88624494378647
H           3.83022587767950    2.07377498776604   -0.07800622371800
H           6.30494836155100    2.13667701260590   -0.27498474064794
H           6.43319869066308   -2.13131366046727   -0.18739260827558
H           3.95661817594940   -2.20760922343720    0.00519385192004
H          10.43671584676838    0.96023692740549   -1.47870877556621
H          12.93319465067583   -0.03041916265914   -1.35274532768963
H          12.76347551640406   -2.32781608458380    0.07566021340838
