28
0 1
C           1.04190319651970   -0.01426121136600    0.00777959379832
C           2.53668871859835    0.04210514556632   -0.06546921120573
C           3.20679172516214    1.25105808089542   -0.22023307088336
C           4.58163179408792    1.29376379751149   -0.31570597998592
C           5.33132599757062    0.11585598823468   -0.23860111167286
C           4.65797204738108   -1.10359716346138   -0.07901360070015
C           3.28474664606317   -1.13178933413070    0.00092857612012
N           6.69335630123653    0.22991167555644   -0.40225419965992
N           7.39181371424670   -0.77986520674988   -0.03586610449446
C           8.71894552705600   -0.73683271173640   -0.27057811246427
C           9.57228867383946    0.15359126601314   -0.92991431087633
C          10.85257952633213   -0.38507841385940   -0.86398882599212
C          10.76177119492174   -1.57902290377720   -0.17192204073125
N           9.48098039706464   -1.78838290646940    0.18137051450713
C           8.95922464164469   -2.90715030872417    0.91291493350460
H           0.61762702024637    0.98115366816295    0.11183434468953
H           0.72217144290392   -0.62350803627688    0.85184066567823
H           0.63885406456588   -0.46670330122138   -0.89876306610326
H           2.63919462516753    2.16948789892287   -0.27234226002805
H           5.10284318115869    2.23099038957306   -0.43561128198436
H           5.23962260231665   -2.01237853882587   -0.03729845706472
H           2.77250842161896   -2.07748043688753    0.11474359211770
H           9.26571789113071    1.06902632732264   -1.39421210484283
H          11.75020898506034    0.03719373747970   -1.27147497254943
H          11.53402079694391   -2.27992418389052    0.08184302176604
H           9.76968524872799   -3.59051077558199    1.15919008944658
H           8.21181090634015   -3.43016134100477    0.31414160610830
H           8.47958471209456   -2.56433120127599    1.83119177350260
