30
0 1
N           1.38074227339541   -0.05073333111701    1.01891899271854
C           2.51596068097503   -0.05547039201232    0.85465815654880
C           3.91238675044040   -0.06118355176501    0.65337307367495
C           4.73332939175885    0.77620518159804    1.41797190120035
C           6.09148396561769    0.78160404905036    1.21163898737090
C           6.66761897810005   -0.06777563052912    0.25425828055009
C           5.83560429232027   -0.90315171656454   -0.51075388535589
C           4.47456982530146   -0.89572945939624   -0.31716748145696
N           8.00995344270259    0.05442908778584    0.02964286859715
N           8.64263325937087   -0.97475463340516   -0.39064826195113
C           9.92696133908849   -0.82154274237809   -0.76013714724803
C          10.75307491990273    0.30063086455148   -0.89422877383866
C          11.98699388590670   -0.14871378646096   -1.34599109339101
C          11.90660482113098   -1.52289700010879   -1.48112326957058
N          10.66848120485674   -1.93403993901659   -1.13129519789577
C          10.22460551907870   -3.24492504314316   -1.13862486847838
C          10.83597293055815   -4.42445143469946   -1.50031947187057
N           9.97114271614914   -5.45091290821193   -1.32440900649397
C           8.86635179120822   -4.92640667749186   -0.87002427779020
N           8.96296319048731   -3.58373202077996   -0.73650141343951
H           8.30032573228709   -2.87889477892840   -0.42169120619108
H           4.28781138357420    1.41992931885835    2.16205321618359
H           6.73994832806969    1.41909718586863    1.79202977250832
H           6.27988874758112   -1.52513727993207   -1.27497474792918
H           3.83223466983353   -1.53184346316081   -0.90893996233290
H          10.45328170649901    1.30695097365345   -0.68203846802765
H          12.85100020456639    0.44993375490330   -1.55552375582038
H          12.65316293474503   -2.22112749521455   -1.80282076845345
H          11.82530923857093   -4.59557370051432   -1.87124174052569
H           7.98208187591897   -5.47941343143957   -0.62725045129567
