38
0 1
C          -0.52909841843107    1.13706721813838    0.69217810631858
C           0.78168217601578    1.00753494667618    0.52663289298687
S           1.58266433377322   -0.31619883623384   -0.33097584862084
C           0.12378603744485   -1.13769227562061   -0.90134826958922
C          -1.12075127669654   -0.80133170390709   -0.58472530773111
N          -1.50602803907870    0.26303693856955    0.22555399622412
C          -2.85022872680189    0.46768123675021    0.51859152321417
C          -3.71166812580198   -0.62584953840262    0.68427387989611
C          -5.04452565939736   -0.43610463883002    0.95239785075536
C          -5.57333836719023    0.85581590420295    1.08859883232202
C          -4.70679877924723    1.95075018685734    0.92574162450547
C          -3.37802229570078    1.76028980071121    0.64184715883457
N          -6.92007884444587    0.96115399748213    1.29525242139124
N          -7.34575722656423    2.10337694878625    1.70757964878213
C          -8.67936306828200    2.26960603248958    1.78044327886934
C          -9.75233389051318    1.51881130792934    1.30143787776685
C         -10.91920681349701    2.23173075960856    1.57711012994172
C         -10.55207053791165    3.39238528743941    2.21762320732072
N          -9.19942532965403    3.42723283039163    2.34379112896612
C          -8.48469314380524    4.44156125810152    2.94752245123488
C          -7.17329475534101    4.45588160086471    3.32501710234271
C          -6.79352790412890    5.68278652265999    3.91084006043125
C          -7.80907902165943    6.57833647888273    3.97914948074631
S          -9.27072129315454    5.95267676707033    3.32021919965439
H          -0.90555957101726    1.96760037042394    1.26933233295114
H           1.47307242274051    1.72443427028139    0.93142649844770
H           0.33319970104090   -1.95420791006099   -1.56874844004945
H          -1.94224554167561   -1.34941968999362   -1.02162484467803
H          -3.31926674229205   -1.63046841261489    0.62801710779918
H          -5.70401534035494   -1.27853210579237    1.09059656035382
H          -5.11873057954722    2.94676697316021    0.99327881764810
H          -2.74617468278244    2.62037869796311    0.47446579512780
H          -9.65918818443968    0.57550773005557    0.80249089464978
H         -11.92222636889777    1.93739863827947    1.33823895121596
H         -11.16156337425407    4.19115016833454    2.59386837694968
H          -6.51884574784032    3.61685151449153    3.18242778436777
H          -5.80066378993422    5.88313405616630    4.27158600439817
H          -7.80360323067721    7.57237666868685    4.37915173425381
