25
0 1
C           1.16544553814263    0.01460870709829    0.05779288105690
C           2.66036047613307    0.05207016410519   -0.01930247539888
C           3.34353411497044    1.25353525778542   -0.17682738150523
C           4.71853783656424    1.28029972950762   -0.27313804089660
C           5.45488858152602    0.09368591798650   -0.19537146632901
C           4.76844066355983   -1.11861834515757   -0.03684366980559
C           3.39502235861587   -1.13062333315634    0.04504021904126
N           6.81925311883924    0.20190059314276   -0.34256868521215
N           7.50867360119056   -0.82509560785403   -0.00852203409042
C           8.84234600466521   -0.76591767875202   -0.20940959282261
C           9.71616503803265    0.16151712183964   -0.77979634803784
C          10.99799297941833   -0.38034261608164   -0.70289870219278
C          10.89243598879371   -1.61488194522379   -0.09482047969277
N           9.59559283301344   -1.83812633389258    0.19590284063850
H           9.20998313697942   -2.65073344999526    0.64748908620768
H           0.75659326677410    1.01039577277641    0.20895877942295
H           0.83871764759323   -0.62861843040807    0.87309408783964
H           0.75295544860844   -0.38827918994300   -0.86775093366076
H           2.78585964667096    2.17814571656131   -0.22866887141553
H           5.25116465320860    2.21095885207729   -0.39380605418773
H           5.33975392629212   -2.03386726860130    0.00500006056177
H           2.87196776320850   -2.07018727476839    0.16037124642454
H           9.42831415677839    1.10592601134138   -1.19485922277650
H          11.90533025718073    0.07251582142219   -1.05159969484161
H          11.65577096323993   -2.33083819180987    0.14051445167252
