26
0 1
C           1.13130922048531   -0.09239299332117    0.16459880021003
C           2.62198001390081   -0.06107450016790    0.04314378426130
C           3.28961569983805    1.10876546031496   -0.30843215576506
C           4.66184161930483    1.12952713744213   -0.43489063199170
C           5.40779493266561   -0.03135163054486   -0.20069716707737
C           4.73814207366141   -1.21375065241973    0.15157819810579
C           3.36786066745395   -1.21890777491539    0.26688975617917
N           6.76955902260099    0.07996857464980   -0.35417661642690
N           7.45657431893703   -0.95312213338505   -0.03605379938428
C           8.79530781526867   -0.86676858742113   -0.19310614062834
C           9.67859252087249    0.10281446633339   -0.64142669590831
C          10.97504454576318   -0.42949768928219   -0.55482612307922
C          10.87697044698137   -1.70280005473232   -0.06112916535906
N           9.55420003611311   -1.97909716790033    0.16229605216720
C           9.06832519014547   -3.11544341488665    0.63870492047651
N           8.67214691642972   -4.10720345694532    1.05058822862287
H           0.71909984151368    0.91311056928940    0.18997025593962
H           0.83088467214159   -0.62164745849501    1.06712621053783
H           0.69918550384138   -0.61898938573313   -0.68693349924309
H           2.72171849434696    2.01133260370478   -0.48461961042560
H           5.18500483199029    2.03403383747807   -0.70463997426849
H           5.32007930149779   -2.10675224574198    0.32386256381886
H           2.85574171778635   -2.13215321407883    0.53649927431705
H           9.39466535804335    1.07613026170223   -0.98688602833987
H          11.88522854267602    0.06889170386333   -0.82563104542596
H          11.63458669574358   -2.43244225481301    0.14864060868503
