31
0 1
C          -0.86793949310915   -0.93271540267030    0.58923099149489
C           0.41397291405097   -1.23634804786829    0.42744260446210
S           1.61588024719681   -0.22054238254754   -0.38164227144670
C           0.53025106041286    1.09580499495188   -0.85182067701487
C          -0.75976123659898    1.17339766967136   -0.54990910727370
N          -1.49629395321879    0.23401921963715    0.16553628955373
C          -2.84758955668620    0.44858020199936    0.42140161129239
C          -3.76025931985621   -0.61353977703675    0.41652972687174
C          -5.09440004190888   -0.39046667573265    0.65656799034372
C          -5.57257211849047    0.90008933499156    0.92220925970375
C          -4.65311147112233    1.96234045137077    0.93391616362841
C          -3.32196784871678    1.74072742454633    0.68552748252254
N          -6.92236967328541    1.02364507874312    1.12447577240977
N          -7.33994716560839    2.19306886158890    1.46541318393129
C          -8.67035025309192    2.34322453521461    1.62698162192943
C          -9.78562214930288    1.52050314145672    1.45648564468742
C         -10.91031186551667    2.28055116387412    1.77370279521292
C         -10.47472140643214    3.53997633013677    2.13095924016366
N          -9.12975466864808    3.56896392507395    2.03708090280233
H          -8.52857275233501    4.35010841926479    2.23914011058182
H          -1.50520461042568   -1.61223956735462    1.13408802201083
H           0.82759944849292   -2.15360311528394    0.80567354111311
H           1.01658362171498    1.85177378145297   -1.44156944880277
H          -1.33877173265328    2.00580970412656   -0.92128283327466
H          -3.42331011219726   -1.61339258938893    0.18586698646388
H          -5.80134590022324   -1.20514029486497    0.63731099477573
H          -5.01716987482318    2.95553540553162    1.14827841856477
H          -2.62812693551795    2.56813444581611    0.72693418536922
H          -9.75447009154803    0.49919408606902    1.13580422046064
H         -11.93125110971050    1.95352146589828    1.74699884291911
H         -11.03819195084126    4.39878821133189    2.43984773454379
