26
0 1
N           1.27282843067402    0.05752547676286    0.31814796661170
C           2.41495658544857    0.05611757900147    0.20682797432947
C           3.81796794001812    0.05259281251085    0.06669483245879
C           4.59605681317693    0.98079794315225    0.76834833131592
C           5.96240830410386    0.98219402173784    0.62200242109323
C           6.58797112872957    0.04374051334890   -0.21257112609643
C           5.79858285352419   -0.88175634973261   -0.91589597382461
C           4.43139217323842   -0.87669967048424   -0.77986602475463
N           7.93970987489421    0.15897568390126   -0.39341015195964
N           8.57889198072484   -0.89277430492268   -0.73997656683156
C           9.87919400241885   -0.76498755439480   -1.05550614546999
C          10.76380741422943    0.31719409361480   -1.16096504992987
C          11.99346527502155   -0.19988567801008   -1.54434598981618
C          11.84360197519302   -1.57213698007462   -1.66643676351605
N          10.57784746457317   -1.90783871926378   -1.37195185638617
C          10.00924652774698   -3.22567167904477   -1.38727268371020
H           4.11097072702518    1.69549675188482    1.41710857799748
H           6.57786345055316    1.68917183735285    1.15640724802104
H           6.29199818269239   -1.58285182679354   -1.57249328834673
H           3.82121824314150   -1.58704355305441   -1.31935957701341
H          10.50806619281549    1.34041904903405   -0.97271588951461
H          12.89782907883636    0.34952394143338   -1.71683360125692
H          12.56925217490569   -2.31206955342900   -1.94567642023308
H          10.79044952621288   -3.95616917682457   -1.58897881387539
H           9.24040630553792   -3.29639587407075   -2.15898047603782
H           9.54566737456352   -3.44205878363507   -0.42390095325465
