24
0 1
N           1.19664730381518   -0.05582196339826    0.13562570031739
C           2.34109473415834   -0.02184446849781    0.06763445407436
C           3.74972311826471    0.02189728949235   -0.02073511211481
C           4.40361610763895    1.25453068184673   -0.12204391463977
C           5.77425197801060    1.29525483552531   -0.22551866569759
C           6.51916085932992    0.10736233310887   -0.20925819696552
C           5.85592301564251   -1.12625248604285   -0.10572998637421
C           4.48504701345170   -1.16831429436058   -0.01533866815838
N           7.87500406012414    0.22428692247125   -0.38771273965225
N           8.58687730760379   -0.77182680921286   -0.02403035273605
C           9.90740591241612   -0.72069140590833   -0.28898537842350
C          10.74638764364501    0.15042494616079   -0.97096510930668
C          12.04310525848021   -0.37952206391789   -0.91586802382109
C          11.98974360184807   -1.55460165315179   -0.21079123036091
N          10.69629470151351   -1.77159177991416    0.17274244808911
C          10.25432998651725   -2.81016781364794    0.86954203296071
N           9.88875649121862   -3.71434901996176    1.46710699963079
H           3.82275939915898    2.16516748966975   -0.12517948812723
H           6.29974243390809    2.23429033685925   -0.30282290595052
H           6.44536470808392   -2.03088342359938   -0.11046658035691
H           3.96689620013956   -2.11311626971266    0.06130960103054
H          10.43090550212624    1.05692755184087   -1.44702818100525
H          12.92457983731579    0.05219833323068   -1.34708984483218
H          12.76529282558876   -2.24979726887938    0.04625314241957
