21
0 1
F           1.06922742146916    0.04874301025194    0.04227510722027
C           2.41047173565087    0.07536935414590   -0.05128259775133
C           3.04119768648655    1.28703588095545   -0.28734874636482
C           4.41550425402863    1.30905557881027   -0.39041722214523
C           5.15381368063851    0.12703603613648   -0.25225735696398
C           4.48810272362728   -1.08473959137349   -0.01011287276191
C           3.11535864126287   -1.11172664448137    0.08863559904412
N           6.51764578951255    0.24935977588744   -0.39547768980746
N           7.20438095145069   -0.80532881632144   -0.18639882805802
C           8.54201038452893   -0.70412901476900   -0.36570803377171
C           9.44843331965400    0.26913545566285   -0.80760679559141
C          10.69160224257550   -0.34866230568580   -0.76301828327433
N          10.59391568067316   -1.60285146311799   -0.33056322638843
N           9.32803439244979   -1.78043696243774   -0.11194637127297
F           8.89079631425508   -2.97608723901154    0.35156658228159
H           2.45209859542464    2.18466729829418   -0.38873895484903
H           4.94501102771548    2.23029863402364   -0.57396756158536
H           5.07244983252649   -1.98621047315057    0.09025955454871
H           2.58059160202296   -2.03080389831288    0.27011569801889
H           9.20538551485232    1.26491900734358   -1.11159848204194
H          11.65285820919437    0.04714637715028   -1.02120951848592
