33
0 1
C          -0.89979907579070   -0.95490876520257    0.53189560865344
C           0.38152411674331   -1.26416121157002    0.37431160353891
S           1.61180838961682   -0.21554617127475   -0.34115259542285
C           0.55359718452190    1.14153460573974   -0.74481006743977
C          -0.74131768722752    1.21947617131305   -0.46291008212859
N          -1.50576545603522    0.24697209244215    0.17621633006908
C          -2.85363212702253    0.46626514790176    0.43068642954218
C          -3.77923172602409   -0.58495557774644    0.37212364943379
C          -5.11055608092931   -0.35939075086722    0.61923294836277
C          -5.57539615282100    0.92211776700331    0.94841458955062
C          -4.64549681681699    1.97439066696596    1.01048978925447
C          -3.31721396922852    1.75098962304614    0.75214527067006
N          -6.92066179150127    1.04189114548106    1.16612650787522
N          -7.34078296322868    2.19208346285551    1.55605268418788
C          -8.67976422297624    2.30850377664248    1.72379044520473
C          -9.79086410614826    1.49635739953898    1.46098991788045
C         -10.87956049520615    2.26788754250048    1.84229244284219
N         -10.49253040610343    3.45282310901516    2.30585555367026
N          -9.17595462085595    3.47347477364881    2.22673300909176
C          -8.41981964418528    4.60674150926098    2.66948955971625
H          -1.55386972618071   -1.66107583367802    1.02000368124619
H           0.77360966299736   -2.21084030490222    0.69988366103451
H           1.06012727304622    1.92736861904951   -1.27583935180134
H          -1.30021212101303    2.08228158894878   -0.79300663851258
H          -3.45413594049834   -1.57605385378170    0.09292690569194
H          -5.82664245084609   -1.16393428997552    0.55877485945699
H          -4.99854498613291    2.95961277374745    1.27435335649074
H          -2.61610614289275    2.56891519196978    0.83457340585769
H          -9.77700078834695    0.50945534092141    1.04852720209068
H         -11.92309420102807    2.02466103561836    1.80436979413686
H          -9.10840869566439    5.43861314772152    2.80102082441802
H          -7.66190322687458    4.85441250345156    1.92690705344623
H          -7.92451100534553    4.39070776421334    3.61874165188969
