27
0 1
C           1.06917240680653    0.04874608372020    0.13637046941127
C           2.56321696676732    0.08264488533538    0.05797838965379
C           3.24552805366344    1.27673231168300   -0.15370771368255
C           4.62027026302168    1.29927407541075   -0.25144290584270
C           5.35531805680907    0.11620541351719   -0.12098619183163
C           4.67078583925546   -1.08885482838854    0.09361742238754
C           3.29769127747194   -1.09674792201458    0.17627892762570
N           6.71934565328155    0.22293957037433   -0.26683128821699
N           7.41098780501180   -0.79507665118695    0.07658221653894
C           8.74856277137868   -0.71506576103965   -0.12993502655156
C           9.61115330129557    0.19919879635165   -0.74815862926297
C          10.86771571032498   -0.37722144812050   -0.62600207558664
N          10.80267828373285   -1.54295192172026    0.01149933281571
N           9.53345017634907   -1.74163168745404    0.30169111499757
C           9.10369890846025   -2.91007998328138    1.01072991709428
H           0.66013982727868    1.04986369695459    0.24573382886849
H           0.74233266022940   -0.56092354734124    0.97694037239140
H           0.65796558064930   -0.39227901088182   -0.77220608556360
H           2.68732398603915    2.19747316851239   -0.24737041046526
H           5.15389027154633    2.22274314394490   -0.41479984322717
H           5.24244782783561   -2.00080856830806    0.17889166560196
H           2.77443968350928   -2.02957695876632    0.33505818809036
H           9.33738980359525    1.12427115295513   -1.21026247770416
H          11.81429471135863   -0.00735703071148   -0.96715266516537
H           9.96321859354302   -3.56762857187545    1.11952360019887
H           8.31287497924920   -3.41389594461262    0.45467620270918
H           8.72013660153636   -2.63853246305676    1.99573366471559
