30
0 1
C          -0.48881144888817    1.08169181440746    0.74181780130779
C           0.82283061865272    0.93581431458982    0.59676033513574
S           1.61994971366099   -0.36323755146977   -0.29775063788365
C           0.16152383883023   -1.17158574646522   -0.88216192884291
C          -1.08426859100718   -0.82563236759693   -0.58083398862624
N          -1.47145937964874    0.24100252458791    0.22647937913777
C          -2.81545966432697    0.46973449280880    0.48838829674522
C          -3.70972427994318   -0.60473118889700    0.60527252174388
C          -5.04278722294237   -0.38545214181347    0.84588985391244
C          -5.54169034854814    0.91740122423720    0.99392194209738
C          -4.64306635308359    1.99336978622567    0.88184227390993
C          -3.31305781385441    1.77401656832470    0.63175530888126
N          -6.88857671328242    1.04277171184990    1.18328054834817
N          -7.31988583356818    2.20904390874203    1.50644320317054
C          -8.66497411059817    2.33958259165633    1.60929700863983
C          -9.77485920211091    1.53205287363756    1.34054829559739
C         -10.87172385246470    2.33319176748387    1.64395676749398
N         -10.49454617071280    3.53304652387400    2.06608661955308
N          -9.17240684812258    3.52776697915936    2.03723079390933
H          -8.64658410587889    4.33693470515700    2.32717297516258
H          -0.86254418177784    1.89405198074244    1.34606324258329
H           1.51685489442199    1.62287583003546    1.04659473293306
H           0.37081864503794   -1.99146293420822   -1.54556251337940
H          -1.90342335650791   -1.36739807611883   -1.02921416400956
H          -3.34303803775793   -1.61807236701713    0.53736615210529
H          -5.72765715148939   -1.21246408007391    0.94890812056109
H          -5.03191502429647    2.99648273731734    0.96914027821746
H          -2.65337675742277    2.61988069687684    0.50472867337793
H          -9.76098777059513    0.52622022698139    0.97707570171296
H         -11.91451349177455    2.09369319496460    1.57472240650302
