24
0 1
F           1.18327752221954    0.01929087890741    0.25627856199579
C           2.52219269225872    0.02065099977553    0.09824357357016
C           3.27343058869830    0.98497260148900    0.75151595215283
C           4.64067471767445    0.99242073973613    0.57770060644035
C           5.25697136406514    0.02560554469830   -0.22631535893311
C           4.46963445375203   -0.93691580369425   -0.87549938618189
C           3.10110426240848   -0.93734812683256   -0.71933336399024
N           6.61863113025806    0.13353278011975   -0.39117662959305
N           7.22857039175876   -0.90795833906596   -0.80517337295001
C           8.55292553618978   -0.78126445753094   -1.05588132076457
C           9.46951270715352    0.27932000417778   -1.08011143199514
C          10.66702922648490   -0.31025145782924   -1.45727029580226
N          10.51839200722672   -1.61899636831867   -1.65012355194564
N           9.25499371858259   -1.89451443402920   -1.41226452410417
C           8.74982478591906   -3.23117738559973   -1.52010872224556
H           2.78005516538112    1.71319304913055    1.37580942703103
H           5.25854710605229    1.72676240340832    1.06984108821201
H           4.95795176791354   -1.66122948185520   -1.50941084584592
H           2.47659916107006   -1.66277902281282   -1.21725881113521
H           9.26417070778405    1.30545270824583   -0.85832254885012
H          11.62723680170602    0.14438294790567   -1.59934853916181
H           9.57861583402333   -3.87649159559215   -1.80259064963513
H           7.96681228045829   -3.27869543734854   -2.27799393971463
H           8.33304607096128   -3.55564274708500   -0.56584591655370
