25
0 1
N           1.33136888385020    0.00061939929228    0.51378219901325
C           2.47144843797717   -0.00526377720815    0.38778944707271
C           3.87412210181151   -0.01495746693372    0.23147766545429
C           4.66093528352492    0.91452208004865    0.92086324923997
C           6.02590114874225    0.91215195041716    0.75768868713237
C           6.63633514531163   -0.03358137501805   -0.07887175864015
C           5.83968581937395   -0.96146842455414   -0.76895430142909
C           4.47344591058087   -0.95028514642037   -0.61814945768919
N           7.98969412085130    0.07487254156163   -0.26515140036353
N           8.62205629215445   -0.97250034541100   -0.61893095427318
C           9.93456941698860   -0.82870371603171   -0.91336021418520
C          10.83135210569536    0.24741849695341   -0.98793978106847
C          12.03340543932821   -0.33385882352322   -1.36180616092241
N          11.90389386155108   -1.65095321476238   -1.51017363691102
N          10.65190673028103   -1.94148474047131   -1.24144190127879
C          10.16609902281268   -3.28782807700106   -1.30870212382741
H           4.18500858688453    1.63337350786926    1.57144916600322
H           6.65044997004549    1.61901276477418    1.28132534621145
H           6.32372760853107   -1.66679675623788   -1.42778548139894
H           3.85469458238830   -1.66011589566437   -1.14791819172552
H          10.61282935610861    1.27642984031226   -0.79376239793539
H          12.98364754353261    0.13168735789085   -1.53164843461350
H          11.00730707724459   -3.93163735789008   -1.55560364601431
H           9.39615768370387   -3.37474901752987   -2.07666050646711
H           9.73821787072600   -3.58205380446233   -0.34980541138377
