21
0 1
F           1.06675321298602   -0.08200886492901    0.04806827636375
C           2.41022784098943   -0.06128188356113   -0.04858472567249
C           3.05764140789117    1.16163729606760   -0.13247417557893
C           4.43115246602546    1.17927538425910   -0.24377964124548
C           5.15604473339463   -0.01905349292911   -0.24610273442364
C           4.47297406478881   -1.24129889199646   -0.16201738941158
C           3.09879415793606   -1.26428636209330   -0.06939962030164
N           6.51830177006766    0.08690685498238   -0.40517770023324
N           7.21699828481416   -0.92444664943256   -0.06693428051717
C           8.55048341104865   -0.84923193852609   -0.30208166810023
C           9.40188932284975    0.03880560565756   -0.96802832389160
C          10.66491131226841   -0.53229536086238   -0.84499343591316
N          10.61595016842773   -1.67093469409467   -0.16444232275533
N           9.34906718725206   -1.85462459487175    0.15038199215217
H           9.05900790904515   -2.65748614803018    0.68682050895193
H           2.48135793081278    2.07317619315398   -0.11563507405172
H           4.97080088688986    2.11058181639756   -0.31053041278919
H           5.04437404877015   -2.15643148637550   -0.18845080126547
H           2.55273907560912   -2.19307964640704   -0.01274516163404
H           9.12187707392698    0.94546044586328   -1.46140241532520
H          11.60273373420598   -0.17059358227221   -1.21700089435776
