22
0 1
N           1.29904991370491    0.02184599160839    0.25681991340345
C           2.44187187008561    0.04658483762670    0.16709929580221
C           3.85035449828091    0.07520697167507    0.06247056841816
C           4.51731496630850    1.30230568975183   -0.01778255633820
C           5.88793734810206    1.32918933112001   -0.12989815482173
C           6.61772113448947    0.13207016679326   -0.13961589850660
C           5.94213564930015   -1.09598907715720   -0.06136440210963
C           4.57069260101172   -1.12357521586364    0.03497786012693
N           7.97525871295519    0.24136554205602   -0.31082313796340
N           8.68479101135268   -0.75189780005290    0.04837420424899
C          10.01285234073139   -0.67721673011596   -0.20277414030743
C          10.88262274955546    0.19525395556887   -0.87211195372995
C          12.13916729991784   -0.38318794359511   -0.74553253580341
N          12.08099837157344   -1.52127248103014   -0.05824130373308
N          10.82891133780483   -1.66738419907577    0.24006962782391
F          10.43230483137712   -2.74409466751466    0.95771422024786
H           3.94780363793008    2.21968234148807    0.00255464314941
H           6.42424947619272    2.26314871873814   -0.19010211108395
H           6.51911431407764   -2.00786146158574   -0.09218486845502
H           4.04148990195529   -2.06346717191267    0.09296317999790
H          10.60921451274937    1.10290950716004   -1.36773784471572
H          13.08315352054357   -0.03702630568260   -1.11495460565070
