31
0 1
C           1.22382639093626   -0.10337664107521    0.21235592565652
C           2.71560488924576   -0.09308582950242    0.09719612822315
C           3.47723137449240    0.90588950097498    0.69580480163781
C           4.84969351826594    0.92411364131780    0.56571410058143
C           5.49937121834996   -0.07670084115063   -0.16396227541592
C           4.73550234439431   -1.08789647218869   -0.76608564300871
C           3.36678857073378   -1.08619190480168   -0.63500863602582
N           6.86828057471242    0.02571645135490   -0.27048162604245
N           7.45967857574139   -0.98210517516582   -0.78612106111561
C           8.79174442908127   -0.88190301048797   -0.98550723296782
C           9.71904325720161    0.16254088591549   -0.96272621985524
C          10.91866059823225   -0.42023759363334   -1.35856927836011
N          10.77394176576927   -1.71407199473554   -1.60270039984616
N           9.49283160753708   -1.99479091001988   -1.38732020494806
C           9.03335128996553   -3.28512447069518   -1.54822806637229
C           9.71682748778243   -4.40001103181240   -1.95537257435022
C           8.76540293466252   -5.44583461277294   -1.94480149466771
C           7.59301168146155   -4.88940951524877   -1.53530036812157
O           7.74854521518592   -3.57375900368633   -1.29232310695789
H           0.88356381054136    0.60294127344947    0.96520371190253
H           0.86609777881063   -1.09806799173645    0.47292189864891
H           0.77464760992608    0.16968460230963   -0.74300472596434
H           2.98341847845695    1.67868561624371    1.26767180174596
H           5.44478209563956    1.69590283410272    1.02891343209803
H           5.24833453613580   -1.85175431029812   -1.33083789988219
H           2.78027477034346   -1.86351130164527   -1.10504550498896
H           9.51984736907032    1.18169469820709   -0.70624959248138
H          11.88088426153557    0.03809592358294   -1.47451113701325
H          10.75128940526711   -4.44464735998866   -2.22062608542243
H           8.93603326229837   -6.46965080261829   -2.20597966993896
H           6.61576889822366   -5.30018465419588   -1.37985899674726
