28
0 1
F           1.19149692054708   -0.06051623464348    0.05973435250875
C           2.53186946618389   -0.04075926462148   -0.06909815853271
C           3.23610314656347    1.05022624999115    0.41667852008150
C           4.60587835782104    1.07281490816764    0.27030164525032
C           5.27201345075501    0.00153784591961   -0.34023924991622
C           4.53238902637372   -1.08848709930131   -0.82336825407509
C           3.16141821863724   -1.10789365670753   -0.69144943575920
N           6.63084009510061    0.14039057567188   -0.48462351278289
N           7.30620861084841   -0.90365731066401   -0.75903468934665
C           8.62488256341707   -0.75370838162519   -0.99324065183780
C           9.50478980068617    0.32014818626119   -1.16615750758484
C          10.72992435524845   -0.27564860086953   -1.43755190121661
N          10.64040192779416   -1.60118451158604   -1.43217590891287
N           9.37721959572090   -1.88772979186547   -1.17061629045637
C           8.91600576508626   -3.17976299597901   -1.07740112890146
C           9.63908570575459   -4.32468974927910   -1.25927230759653
C           8.84768525310895   -5.47864572610194   -1.09031882689627
C           7.55771197673125   -5.18878866907531   -0.78299908141954
S           7.25902542576843   -3.49155433594602   -0.69204804075035
H           2.70576578980672    1.86033688690002    0.89179123146443
H           5.18924650875561    1.90314915583299    0.63541508952472
H           5.05400772818216   -1.89785681703110   -1.30937466717526
H           2.57203790330377   -1.93187553862719   -1.06239271102907
H           9.26071057471325    1.35958482640462   -1.10601277065553
H          11.67466947522909    0.19073451146617   -1.63460987221717
H          10.68486856978912   -4.31924109688788   -1.50233453696462
H           9.22981396546844   -6.47819900497299   -1.19289462891300
H           6.75121982260568   -5.87213436083077   -0.60714670588964
