22
0 1
N           1.31528714533013   -0.08501770341564    0.25411385969272
C           2.45809611608277   -0.07001562563723    0.15636701614765
C           3.86482305012693   -0.05312499283360    0.04423885374769
C           4.54670486233359    1.16751405453083   -0.01424159557159
C           5.91678891709236    1.18232911898003   -0.12661901934461
C           6.63695224391608   -0.02082702211067   -0.15740658918728
C           5.94510948086176   -1.24146902183989   -0.10711124782461
C           4.57371269563713   -1.25742228255198   -0.01053794295510
N           7.99271475314599    0.07116347907321   -0.33689301945274
N           8.70644587138522   -0.90277474759515    0.07302335138860
C          10.02976263829565   -0.85361047116494   -0.19427734097686
C          10.88544293922012   -0.00650379623881   -0.89678276850447
N          12.14468541960149   -0.46836328459617   -0.82967557638789
C          12.09559340733462   -1.56755615600895   -0.11390354931189
N          10.84578083154447   -1.85023252584380    0.29533135858868
H          10.53180565349171   -2.62526305539776    0.85635628267870
H           3.98693894514560    2.09044091474905    0.02360060950461
H           6.46235844490027    2.11184805725143   -0.17006639037238
H           6.51148979268537   -2.15912305382134   -0.16003268407185
H           4.03478768743677   -2.19310264907757    0.02847392792813
H          10.63859780820207    0.88991823595989   -1.42822866928441
H          12.94810129622992   -2.17374747241083    0.12097113356884
