28
0 1
F           1.03919384070585    0.10708612841167   -0.16882333559024
C           2.38405394305441    0.09119910088122   -0.25474748425684
C           3.10733620374098    1.10677412698218    0.35112686723919
C           4.48156117285335    1.09550144547989    0.24946243844259
C           5.13249826388191    0.06297154422011   -0.43748857661153
C           4.37303586202522   -0.95040530857771   -1.04156591280889
C           2.99831208917306   -0.93545694281962   -0.95465559898324
N           6.50078869111983    0.15823012693501   -0.54057868933855
N           7.12302760724208   -0.91361197159136   -0.85097871794517
C           8.44762590287483   -0.81084048273875   -1.08187158882045
C           9.31924051045378    0.25648244786794   -1.28183687659603
N          10.54670666612337   -0.19563763610411   -1.58658539780016
C          10.46580124311026   -1.50308458954899   -1.57797023802658
N           9.21994360544314   -1.94939293501876   -1.28670380220411
C           8.81744336112230   -3.26839940360645   -1.19112833735731
C           7.64910251518427   -3.76237191490960   -0.68941175886782
C           7.58998171565960   -5.17058800436293   -0.75914917072375
C           8.70333849854512   -5.72285226594089   -1.30189422034269
S           9.86590456728927   -4.53882007958034   -1.75388115444057
H           2.58766261418408    1.88823662850684    0.88269024853456
H           5.07894934150397    1.86774502706222    0.70733033120353
H           4.88529630569386   -1.72596113844307   -1.59086396784406
H           2.39563430565422   -1.69993267507802   -1.41998288285505
H           9.09250604467921    1.30204517369851   -1.23182846400622
H          11.28632035535034   -2.16405574776686   -1.77765378554521
H           6.87309050247474   -3.13603210149598   -0.29162137878551
H           6.75027792303222   -5.74506320518174   -0.41279129661215
H           8.92506634782506   -6.75804534728042   -1.46684724905786
