23
0 1
F           1.22797718254362   -0.07236883590988    0.24992201431280
C           2.56789890068940   -0.06090975030520    0.10088343877982
C           3.30253398759447    0.94910891665622    0.70199688319915
C           4.67026288473077    0.96591731795968    0.53546859401927
C           5.30631589376779   -0.03523823232658   -0.20930077971208
C           4.53521925753685   -1.04268843708886   -0.80690964110803
C           3.16556817631481   -1.05434176998809   -0.65766618320239
N           6.66593202400492    0.09024299629740   -0.37426849208353
N           7.30414260370205   -0.96406041221746   -0.71101485031573
C           8.62014023796788   -0.84634252596866   -0.98013520451411
C           9.56676412268578    0.17046939455508   -1.11875024867145
N          10.74492943008323   -0.34879101029822   -1.47997951641294
C          10.57139510729229   -1.65608550844743   -1.55601978043114
N           9.31084868216500   -2.00874917184742   -1.27165621372002
N           8.76917746786265   -3.27869328788233   -1.16927425868422
H           2.79629833832366    1.70552777223782    1.28068290308911
H           5.27505789468611    1.73568424565239    0.98760799100477
H           5.02984331081121   -1.79469009731168   -1.40287090931505
H           2.55496036959874   -1.81554317003695   -1.11806131807961
H           9.42667942235429    1.22267538420239   -0.97811142827050
H          11.33499611512973   -2.35644967395910   -1.82848373568971
H           8.86750510333570   -3.79490763762221   -2.04056441809129
H           7.78453348681938   -3.16217650635094   -0.93022484610329
