21
0 1
F           1.09056228330324    0.05124867259045    0.13487245309280
C           2.43392619929929    0.07745099920365    0.06272927721165
C           3.07113269782095    1.29338065774621   -0.13039755802369
C           4.44666676538146    1.31445026800881   -0.21499055356506
C           5.18098001656230    0.12756672928577   -0.09752792443637
C           4.50841521648763   -1.08806140610052    0.10183479934787
C           3.13403651939722   -1.11454212680527    0.17933787860258
N           6.54593201909945    0.24765390657467   -0.23011588223827
N           7.23138827311713   -0.80107391590828    0.01476738149480
C           8.56802213397822   -0.71084379790874   -0.16820484661393
C           9.47352349327207    0.22682789536083   -0.65351975049930
N          10.72460352342463   -0.26933725784925   -0.63245593247210
C          10.64373446188235   -1.48502722997156   -0.14941532036128
N           9.36840632364687   -1.78794617526014    0.13614242142551
F           8.93016481112907   -2.96870674629297    0.65448665669671
H           2.48605072069122    2.19542988774718   -0.21551013685385
H           4.98096262151194    2.23901241110205   -0.36534957552300
H           5.08829620051350   -1.99435096561076    0.18437003878434
H           2.59488282002860   -2.03745342106619    0.32611243886602
H           9.26462379130201    1.21347707530934   -1.01367779195050
H          11.46377910815096   -2.15677546015492    0.00171192701473
