24
0 1
C           1.06602149227741   -0.03687974439790   -0.07354178157410
C           2.56010456930039   -0.00136874697840   -0.13150569137029
C           3.24933912976390    1.20225298679957   -0.24759691315138
C           4.62560117094425    1.22563414712865   -0.32036781434220
C           5.35322302258393    0.03155571750801   -0.26026792929514
C           4.66190273425585   -1.18425538753856   -0.14160087132925
C           3.28835121084989   -1.19089391479724   -0.08350210345868
N           6.71841715133980    0.14232365089705   -0.36745871721271
N           7.39528018861159   -0.90849438489997   -0.10489720799128
C           8.73410767212685   -0.83011021643797   -0.28691596079836
C           9.63330689643821    0.05167426188679   -0.87457650338198
N          10.88567183622803   -0.44320330190807   -0.82266310548221
C          10.81012048429153   -1.60340603373836   -0.21949665878970
N           9.53642294069268   -1.87562747525813    0.10697449114028
F           9.10788253047148   -2.99611327024434    0.75518375386111
H           0.65240113062849    0.96448697316237    0.01187046269346
H           0.73156939921200   -0.63073794834197    0.77575361103653
H           0.66776364461738   -0.49974465863172   -0.97657377077121
H           2.69587133011126    2.12966400047661   -0.28478545227951
H           5.16566442688288    2.15545379830158   -0.40911014279406
H           5.22974819875252   -2.10173191925262   -0.10932110941076
H           2.75836016861960   -2.12938030825061    0.00032074597674
H           9.41871992880121    0.99540764651856   -1.33282376721619
H          11.63140874219883   -2.25746587200341   -0.00996756405918
