37
0 1
C          -0.56089171646608    0.86191278068059    1.10115801321130
C           0.75787040752787    0.74868642159229    0.99559415785985
S           1.61308118289855   -0.20481669675034   -0.22114806222627
C           0.19481661416680   -0.80969863099568   -1.08212375178227
C          -1.06886040992477   -0.55209204112347   -0.76615550797677
N          -1.50826922246730    0.24857616395079    0.28506617794996
C          -2.86391662822785    0.43761712872578    0.51038171617424
C          -3.78805886917058   -0.58189840806486    0.23312662016831
C          -5.12918384376451   -0.39102792669081    0.44515043044220
C          -5.61294063204436    0.81945773044484    0.96791547998651
C          -4.68536196111345    1.84309871396322    1.23819025153557
C          -3.34651972065847    1.65797479200998    1.00781519375957
N          -6.96300683252632    0.93148787312639    1.10513611218609
N          -7.40108335961036    1.87607205798110    1.86169936237130
C          -8.74283165935209    2.04735465025856    1.90450948399730
C          -9.81986107691002    1.52481103717830    1.19498352440690
N         -10.96765149575300    2.08308809501988    1.61721590542829
C         -10.63851798318007    2.92910044124847    2.56326783408361
N          -9.30292530125288    2.96278809859229    2.78699879601086
C          -8.62023704103068    3.73254244391824    3.71111948669073
C          -9.02981694781575    4.66411021841908    4.63587334518743
N          -7.94846506917745    5.13561102083466    5.30276341905446
C          -6.91196881005510    4.51690945448849    4.80692826778547
N          -7.26199390795811    3.64755202527343    3.83183636836325
H          -6.72876591877472    3.01048212386955    3.24016170923299
H          -0.97372092081625    1.43953307309165    1.91487751249923
H           1.41942443279625    1.23938719674953    1.68746727988774
H           0.44627238890412   -1.41803153232732   -1.93248773227114
H          -1.85655921190217   -0.94382214537111   -1.39149492148708
H          -3.44199809342002   -1.54093856064941   -0.12173681239775
H          -5.83726891665487   -1.17979384638441    0.24538598011005
H          -5.04748367920414    2.80090853749971    1.58320477644866
H          -2.66474640490611    2.47928603740831    1.17396152404775
H          -9.79631546468179    0.79407729917755    0.41251779604524
H         -11.33431010255963    3.53465171401140    3.10773460884038
H         -10.01558437156866    5.01735419332109    4.85772090556720
H          -5.90036945334627    4.66905846552210    5.12454474880628
