31
0 1
C           1.04858104485999    0.03015253140614    0.23258905943829
C           2.53953523682551   -0.01632489866050    0.11281173893635
C           3.34756080643900    0.88076368813708    0.80464934756443
C           4.71917712082896    0.84653871980190    0.67289142395591
C           5.32453306919317   -0.11096819473108   -0.14834228370168
C           4.51262731295053   -1.01596095366865   -0.84836806363997
C           3.14449145116008   -0.95989002622789   -0.71701081199910
N           6.69326130216345   -0.05049969166226   -0.26119263916009
N           7.27027197673695   -1.08393437090561   -0.74382280068209
C           8.59905252210142   -0.99229997615083   -0.96930396912637
C           9.51705855901816    0.05081941709631   -1.01329242439332
N          10.72474977417850   -0.40531825982575   -1.39381245510950
C          10.58674563450015   -1.69288065865452   -1.58299297161222
N           9.31890716873785   -2.11813086374741   -1.35053324073642
C           8.85133681376677   -3.41379437748393   -1.44768639967969
C           7.65269741180935   -3.97207152061854   -1.10342184632383
C           7.76639352616398   -5.34338884848712   -1.43827344667227
C           9.01377682178266   -5.51031097576927   -1.95166638097413
O           9.68530631161446   -4.34088885656451   -1.96156143398570
H           0.73832440811942    0.75270451335366    0.98288296148349
H           0.65706417657710   -0.94918767935467    0.50441677404981
H           0.60362872879018    0.30999683665223   -0.72228081064028
H           2.89115510276743    1.61842742131657    1.44925948893270
H           5.34967976325254    1.53922859963907    1.20831391851004
H           4.98206671245866   -1.73479239123456   -1.50372372333824
H           2.52319504734372   -1.65427770146205   -1.26560853313575
H           9.34136989611769    1.08625941655696   -0.80355283714066
H          11.37204362195500   -2.35527667865866   -1.88733798060343
H           6.81771209314319   -3.46365267402045   -0.67082434132986
H           7.01706076352348   -6.09653005710312   -1.30904979376941
H           9.53087582112105   -6.36905148896886   -2.32952552511677
