32
0 1
C          -0.89490197225673   -0.89386447772457    0.62387187648580
C           0.38115101109695   -1.21780508305907    0.45453556025128
S           1.58127465197462   -0.24756622874121   -0.40991755549055
C           0.52315607987183    1.10185174709309   -0.84203913083784
C          -0.76295110968687    1.20385983445502   -0.52925910353083
N          -1.51558334972525    0.26852795861953    0.17490346123179
C          -2.86628327832159    0.48621863654698    0.41978241265219
C          -3.77483140160523   -0.58135170853867    0.42069704593744
C          -5.11000554383279   -0.36408578949305    0.65262182922404
C          -5.59524831792126    0.92544417627658    0.91651793100424
C          -4.68146957507949    1.99325202575537    0.91820806394785
C          -3.34980096421301    1.77864511411118    0.66737182809255
N          -6.94366988940999    1.03690086942147    1.11198647725681
N          -7.37581272367836    2.17074910844027    1.53748282988697
C          -8.71253149642758    2.30896641387261    1.66612479512087
C          -9.86365463057451    1.58372666268396    1.36280418120146
N         -10.95295401797184    2.29554389478961    1.68572709939807
C         -10.51889522732324    3.43205815247169    2.19440931941315
N          -9.17836612160357    3.49564195399206    2.19853670610658
N          -8.36116598161262    4.49167609557660    2.71538203472120
H          -1.53146059101658   -1.54552085267597    1.20348100033810
H           0.78881723777757   -2.12501719794728    0.86297198770543
H           1.02300502171225    1.86069089732540   -1.41668163287213
H          -1.32346253653968    2.05742461956104   -0.87968276372206
H          -3.43080664793320   -1.58035029721466    0.19763797481923
H          -5.81384841167189   -1.18129578384585    0.63649120933935
H          -5.04565066166754    2.98929886688487    1.12000515093497
H          -2.66375217139338    2.61278109195888    0.69816123931878
H          -9.93084648994526    0.60732951276609    0.92848983936942
H         -11.14769552557006    4.22368428095851    2.54880656901556
H          -8.51044318250879    5.37363157628088    2.22989428787887
H          -7.40114218294307    4.17537392939840    2.57739747580247
