28
0 1
F           1.01542631458965    0.14658759261250   -0.02026972872879
C           2.35830670630858    0.12291291084144   -0.13238348585626
C           3.09840560752337    1.14047436325857    0.44929107966415
C           4.47035275042710    1.12029850715859    0.32183932846283
C           5.10281574607167    0.07663958738644   -0.36557529238669
C           4.32632651269678   -0.93696239536845   -0.94685158780037
C           2.95353511688405   -0.91313110962578   -0.83474561113587
N           6.46955252272849    0.16204937735775   -0.49375267872688
N           7.08304013255239   -0.91959523317144   -0.78837290306371
C           8.40595359487102   -0.82515932653491   -1.03617736157506
C           9.29241095833396    0.22763395486878   -1.24609057197236
N          10.51278645153325   -0.24473303171735   -1.55069105988283
C          10.41561735148510   -1.55102399770941   -1.53251971861929
N           9.16265539976609   -1.97383952427537   -1.23341463011835
C           8.73940672319947   -3.28431918432115   -1.12286850124487
C           7.55242891138007   -3.82289875467842   -0.71292380152884
C           7.72105860114235   -5.22523777157474   -0.81427265399958
C           8.98545836208335   -5.42699379847720   -1.26986556872888
O           9.61618154476296   -4.25106764666362   -1.46096959906727
H           2.59317766165818    1.93010002231877    0.98269099374634
H           5.08025107347919    1.89380005265287    0.76048721593279
H           4.82377971612050   -1.71935570001139   -1.49987009620334
H           2.33788680926986   -1.67829881337854   -1.28147737506383
H           9.08345448227431    1.27707312386909   -1.20091410712563
H          11.22280737961931   -2.22735820813308   -1.72989009288672
H           6.69069996485644   -3.28273402318562   -0.38403543372754
H           6.99521145047425   -5.97448542744468   -0.57598351913005
H           9.54033215390862   -6.31619554605371   -1.49076323923266
