22
0 1
F           1.16481140253229   -0.06931079338542    0.08134298483198
C           2.50735764923647   -0.04271035625480    0.01634789028780
C           3.14449835169581    1.17310251788332   -0.18071618044381
C           4.52037210884370    1.19515994591683   -0.25591421660248
C           5.25494028473372    0.00925261377120   -0.12508196382788
C           4.58260816667314   -1.20687911995001    0.07693678979801
C           3.20797288835601   -1.23377141011908    0.14522388069479
N           6.61980374486517    0.13174016137580   -0.24287772448334
N           7.30447184927100   -0.91760660010788    0.00532728186508
C           8.63990175548979   -0.83420514460913   -0.18100368363789
C           9.52030297300961    0.06638199208732   -0.75784174994640
N          10.78037308309239   -0.42252290212774   -0.72863210107468
C          10.72003378671540   -1.58594827319679   -0.15498145424551
N           9.43827079794339   -1.91366637115841    0.20240247428749
C           9.03111866648238   -3.02566153540397    0.79930025284743
N           8.70212458507288   -3.99436810208348    1.30977253995629
H           2.55898469716173    2.07399996508661   -0.27452671377189
H           5.05514310900373    2.11915775388808   -0.40861512971186
H           5.16280666176042   -2.11213022745160    0.17041185058349
H           2.66887464726652   -2.15618632553338    0.29494513035258
H           9.29303120226045    1.01793482564539   -1.19352886751706
H          11.55506758853425   -2.23273261427104    0.02836870975845
