23
0 1
N           1.35897677911129   -0.07643696191560    0.21310394604141
C           2.50301685273223   -0.05223388551959    0.14123506057311
C           3.91277201544638   -0.02176068133645    0.05036336798481
C           4.57762241156443    1.20462017897505   -0.05155330588938
C           5.94928975204316    1.23179462316892   -0.15066469046673
C           6.68143743650200    0.03614846041527   -0.13046901784951
C           6.00697649125639   -1.19170081949457   -0.03016446209566
C           4.63547230960848   -1.21986861660220    0.05691363068133
N           8.04132470809003    0.14919727861130   -0.28491598073780
N           8.73800668992696   -0.86815601295458    0.04091736886461
C          10.06539125072355   -0.80690752604700   -0.19994621912277
C          10.92783089336514    0.04533549974187   -0.87180079847906
N          12.18928063741764   -0.43603808956257   -0.83277031603821
C          12.14723877514652   -1.54962279265421   -0.16456078205427
N          10.87767172713223   -1.84853328736983    0.25155769157428
C          10.49027777501624   -2.90851158769832    0.94979788694761
N          10.17618357103473   -3.82940248153648    1.54982183784844
H           4.00561755694286    2.12056568611938   -0.05734480385959
H           6.48542455029875    2.16466156907752   -0.22766280143155
H           6.58665744247371   -2.10242778496514   -0.03435148176449
H           4.10744023257177   -2.15914063617802    0.13186377662041
H          10.68568219704649    0.95893687334992   -1.37566283229884
H          12.98876794454912   -2.17852900562471    0.04893292495205
