30
0 1
C          -0.49659762449120    1.07876737057606    0.73577076284466
C           0.81440988202020    0.92974185180903    0.58911571803097
S           1.60664069748179   -0.37909067042684   -0.29694180300503
C           0.14449240001757   -1.16948026020666   -0.89902832564121
C          -1.09960811669856   -0.82110498430041   -0.59385862989303
N          -1.48120585774185    0.23653507959192    0.22736270826764
C          -2.82517573346387    0.46614802605245    0.49391371197190
C          -3.71701779129630   -0.60890276556101    0.61834988220920
C          -5.04942140569313   -0.39069237881773    0.86530229905308
C          -5.54900574605760    0.91171947829299    1.01343389632034
C          -4.65264038071029    1.98788842959569    0.89126595768196
C          -3.32345029495662    1.76970010227271    0.63388780816583
N          -6.89563061897447    1.03712679502459    1.20831137811306
N          -7.32137059635129    2.20190059939993    1.54768769945289
C          -8.66234015242226    2.34226923812639    1.65303960136978
C          -9.77890814741219    1.55790197225806    1.38145206428615
N         -10.90428432107654    2.24800967887794    1.64795782088291
C         -10.51855204525080    3.42517038518772    2.07514651845855
N          -9.17551462054525    3.54174315841311    2.09557313129689
H          -8.61975609511140    4.33145309518478    2.37933403309175
H          -0.86791832071236    1.89678895381454    1.33371914374536
H           1.51033958519142    1.62008946834152    1.03071217153425
H           0.35076155049752   -1.97911731569279   -1.57580462273317
H          -1.92219067175549   -1.35096888749973   -1.05052344512996
H          -3.34860667527644   -1.62166453275058    0.54949039657254
H          -5.73303466452454   -1.21803081940470    0.97350919189903
H          -5.04145602821438    2.99127595047378    0.97588699475757
H          -2.66569272148133    2.61595973004858    0.49920900835596
H          -9.80540002158192    0.55493133081364    1.00773919555418
H         -11.18488546340786    4.20998192050529    2.37411573248653
