22
0 1
F           1.10280377746134    0.03259247444604   -0.01363156435919
C           2.44474682092622    0.07009765615937   -0.07117299891078
C           3.07554033203422    1.29882855856772   -0.19812678290272
C           4.45159826388769    1.33296702214219   -0.26123151526918
C           5.19233880221204    0.14496360256944   -0.19089618783911
C           4.52551731237367   -1.08522379896581   -0.06256862524854
C           3.15105157874235   -1.12325056826875   -0.00398160926000
N           6.55581009568033    0.28644581076822   -0.27865064883873
N           7.24561845700216   -0.77187332622569   -0.11189481452079
C           8.57766848003939   -0.70276552457898   -0.29358208456397
N           9.34016604092630    0.16355392153641   -0.91544844790888
C          10.59389170431038   -0.33049850763036   -0.89033072755909
C          10.63272944106770   -1.53255418675627   -0.23512315412366
N           9.34043876133331   -1.79229416555337    0.14307277808968
C           8.88892087057677   -2.84423671071588    0.80863152245801
N           8.49578358204296   -3.75451549867818    1.37962559554597
H           2.48405753138184    2.19941907659626   -0.24681302140168
H           4.98439945422266    2.26503132617305   -0.36133315826786
H           5.11124975594850   -1.99026784140571   -0.01242661072933
H           2.61532606741497   -2.05471426267611    0.09269951109104
H          11.40280246455370    0.20426901146052   -1.34690254414505
H          11.43621040586184   -2.20436406896444   -0.01158491133587
