24
0 1
F           1.21016950008712    0.02234690723373    0.36302797395308
C           2.54930314737474    0.01985201927604    0.20133380865053
C           3.30661588396227    0.97704639376545    0.85849539210538
C           4.67308708666915    0.97946994042512    0.68117171617682
C           5.28512619177217    0.01379078653674   -0.12900851826964
C           4.49036598166168   -0.94052461025421   -0.78279048851791
C           3.12191496560306   -0.93494037093955   -0.62404884865462
N           6.64404623668105    0.12309068397690   -0.29469147458990
N           7.25837709618088   -0.91839286209816   -0.70059044986258
C           8.57760823282893   -0.81202942755786   -0.96083501500850
N           9.38644081883919    0.23943562348091   -0.99576658551242
C          10.58835322816273   -0.23084380637724   -1.34128145290327
C          10.53505762371284   -1.59925768029837   -1.52408059353622
N           9.25727134960274   -1.96280712917306   -1.28622765744721
C           8.69598467145225   -3.28190199018560   -1.33882059584951
H           2.81773924984462    1.70417569075206    1.48754847923213
H           5.29773737948127    1.70811677004299    1.17258315242517
H           4.97247766755098   -1.66269103340925   -1.42376491919642
H           2.49224521414841   -1.65371848337832   -1.12534799607305
H          11.43142339829407    0.42305855906855   -1.44493913837373
H          11.29391139160127   -2.30440272296037   -1.79747878446886
H           9.47004847005767   -3.99479879217416   -1.61703768890123
H           7.88958365434869   -3.31406170252097   -2.07279302233823
H           8.28392156008223   -3.55192276323134   -0.36544729303986
