31
0 1
C           1.13583946578659   -0.02559571934562    0.38997484676550
C           2.62453301706277   -0.00628064071417    0.24673959587388
C           3.36516001282351    1.11243270275774    0.62229593490510
C           4.73054724680618    1.15075592410723    0.45016134175849
C           5.40639198443994    0.04387044434281   -0.07986244414062
C           4.66211578623641   -1.08511552891152   -0.45842162943575
C           3.29473206324734   -1.09735459188583   -0.30260694893124
N           6.75377416214888    0.17803366028225   -0.27852517774261
N           7.43895697667536   -0.89810671357752   -0.35251357709786
C           8.74661202928478   -0.80182887298989   -0.67475649561099
N           9.45351565995463    0.23222375536735   -1.09789651921498
C          10.69014570387162   -0.22621639845549   -1.32509172644514
C          10.76961631159999   -1.57196144079524   -1.03940874344051
N           9.53057252580743   -1.94676067121006   -0.62804121763716
C           9.13713396376617   -3.20801377571590   -0.22569146644905
C           9.80698278913322   -4.40803947315084   -0.14813473478030
N           8.96511373835858   -5.36114232205637    0.31632569965723
C           7.81839180814920   -4.77137027678951    0.51791080778258
N           7.86468551840804   -3.45665238217445    0.20613243396857
H           7.16539787371925   -2.71681867996401    0.23027234275321
H           0.80835297003444    0.67113442296281    1.15754795527017
H           0.78225202861386   -1.02365818718227    0.63978145159128
H           0.67067337876844    0.26679974663948   -0.55240530916120
H           2.85560138106053    1.96624920532347    1.04527905587374
H           5.30881801935241    2.01464670951458    0.73803574988379
H           5.17201918198653   -1.92291573385600   -0.91276235673552
H           2.72829563092825   -1.96425229269204   -0.61316624859802
H          11.46323583672707    0.42397571791434   -1.68333230407053
H          11.58504060086996   -2.26188464848526   -1.09812409760141
H          10.82224260818610   -4.64001307054993   -0.39544751947478
H           6.93883972619254   -5.25745086870991    0.88784130048389
