21
0 1
F           1.16687553581772    0.03445176768725    0.06313749134579
C           2.51135396264547    0.05750982628277   -0.03221154392250
C           3.15773146965601    1.28155315861865   -0.10957363547288
C           4.53115121461646    1.30124751675653   -0.21964213047931
C           5.25915597365811    0.10385583570463   -0.22679892282562
C           4.57540561023391   -1.11954117582293   -0.14965563033531
C           3.20110387700522   -1.14466509635325   -0.05880903081094
N           6.61805951494924    0.21493694943082   -0.39167940587009
N           7.32299857024665   -0.79135578928369   -0.05118657813206
C           8.65182746092983   -0.73776903930175   -0.28926565992070
N           9.39815012815036    0.13621405411892   -0.94606568824473
C          10.65208922842624   -0.33022988427246   -0.89428077497409
C          10.69913156037944   -1.51658407377133   -0.19153134804294
N           9.42462937366760   -1.76976928514324    0.18317718452546
H           9.08680644646606   -2.55089045925371    0.72125616254199
H           2.57959395132713    2.19194516969624   -0.09015030491238
H           5.07227788619529    2.23164321534473   -0.28416164741774
H           5.14747997630142   -2.03408817408209   -0.18210496708247
H           2.65528923810900   -2.07410246789118   -0.00792832997467
H          11.45822129404860    0.20037843490567   -1.36076568752895
H          11.51675772717005   -2.16380048337054    0.05167044753417
