37
0 1
C          -0.53979998897842    1.15629983273890    0.63762705591695
C           0.77074548956214    1.03496512872013    0.46203496452092
S           1.57604402085420   -0.30298755669316   -0.36518569812942
C           0.12241728393215   -1.16416618545850   -0.88279426641146
C          -1.12291262428215   -0.83374550596528   -0.56235978264566
N          -1.51205567962823    0.25731844027140    0.20980907187320
C          -2.85216802584031    0.45761550660957    0.51244172188025
C          -3.70155197907182   -0.63806014141115    0.72899913331517
C          -5.02932148777642   -0.45000013528378    1.01764872881843
C          -5.56779555046218    0.84277266813252    1.11681580447893
C          -4.71461305332698    1.94012108934905    0.89412857840084
C          -3.38984421591487    1.75075157726177    0.59712678530856
N          -6.90587452894588    0.93777710092189    1.35728967089308
N          -7.34212201127968    2.09546067480443    1.70100010680420
C          -8.67112376118382    2.27030507981764    1.78487586824493
N          -9.65686555937575    1.54711095553961    1.28450428272546
C         -10.78907950377550    2.22373060932976    1.53350971012856
C         -10.51804017007083    3.39009611388366    2.20457691571742
N          -9.16456152267149    3.43488930283940    2.36692720149180
C          -8.44822599380070    4.43123635493160    2.99192739659628
C          -7.13421097215081    4.42840536410886    3.36232860311708
C          -6.74271131004011    5.64266229125726    3.96464419737218
C          -7.75263672405424    6.54334299143586    4.05482961299584
S          -9.22291258866254    5.93866820416562    3.39738152531676
H          -0.91891375016087    1.99894730161288    1.19519465439776
H           1.45782525996196    1.77028644381675    0.84057591912316
H           0.33378833793836   -2.00322632734745   -1.52093558463351
H          -1.94222583182519   -1.40937134175815   -0.96650740377245
H          -3.30057438868177   -1.64024972452911    0.69987171999890
H          -5.68133296268149   -1.28945476995724    1.19920915437897
H          -5.13565336927953    2.93386215323589    0.92932282732739
H          -2.76772935833202    2.60816251822022    0.38560951405590
H         -11.73985085279960    1.84312659706145    1.21660467634121
H         -11.15958544193423    4.16629589784597    2.56951764295588
H          -6.48708999044605    3.58736323016891    3.20086739307767
H          -5.74597984187672    5.83114541849030    4.32094711336985
H          -7.73546735293915    7.53096284183371    4.46983518465153
