24
0 1
N           1.27284232944158   -0.23745069818139    0.27024684063534
C           2.41546193848301   -0.18835403663756    0.17910993143534
C           3.82104077806063   -0.13515714253884    0.07098660796747
C           4.48166624512811    1.09894381290453    0.09316101367949
C           5.85025528295710    1.14714949154843   -0.01882679793743
C           6.59543998138084   -0.03733454743904   -0.12966672856641
C           5.92296182597317   -1.27113317549558   -0.15928726542052
C           4.55265104012511   -1.31930186248612   -0.06421515837460
N           7.94121765805212    0.08784536188225   -0.32631149657946
N           8.69183461547994   -0.87118451073730    0.04855528758991
C           9.99761042820499   -0.84088572023495   -0.26489326380662
N          10.73887166855902   -0.03899536252770   -1.02275330284573
C          11.96919511202119   -0.54673731566360   -1.00354509391575
C          12.02164563522869   -1.68671393880411   -0.21364378192081
N          10.77004967061214   -1.86525575822185    0.24424100635655
N          10.32175985958229   -2.81558587416296    1.13854814689425
H           3.90513637681226    2.00710638947560    0.19051584087937
H           6.37894045445891    2.08707799388289   -0.00337078044783
H           6.50213368228366   -2.17473421915355   -0.28059094886317
H           4.03175762437447   -2.26575928559101   -0.08837115229822
H          12.76843964501897   -0.08496029746322   -1.54808847463471
H          12.82754121384203   -2.34747504603049    0.03033670470508
H          10.50524203544377   -3.75992578929395    0.80925768771512
H           9.32302489847633   -2.66018846903060    1.26809517775274
