29
0 1
N           1.47371711213652    0.05097258753983    0.91439137842809
C           2.61075958998270    0.02805047929216    0.76447430413696
C           4.01007958951615   -0.00868136633547    0.58439478056846
C           4.84033426457986    0.79742395263919    1.37293016053773
C           6.20060379858601    0.77399042495721    1.18425457807287
C           6.76911802111016   -0.07668866765765    0.22165945881691
C           5.92703606289968   -0.88260545726495   -0.56581695535755
C           4.56406517054265   -0.84288709800738   -0.39140119616264
N           8.11095533085649    0.02587408966073    0.00892140695693
N           8.73800477444058   -0.99615521711116   -0.42396734026985
C          10.02473679299591   -0.84458992904014   -0.79339022043045
N          10.75862987229370    0.25141495497429   -0.90930373058914
C          11.95500360014986   -0.14286926387602   -1.35092620756848
C          11.98369462879229   -1.51373006630806   -1.51862503339579
N          10.75532995098975   -1.96619498264125   -1.16712067128497
C          10.32353271821245   -3.27797142690001   -1.17559566508384
C          10.94598109187490   -4.45317964634399   -1.53516256466737
N          10.08781235403064   -5.48429400633407   -1.36361227248275
C           8.97653749883858   -4.96787316953664   -0.91429230022587
N           9.06190789442029   -3.62499296629140   -0.77933676439855
H           8.39084030118944   -2.92879755153293   -0.46586872512184
H           4.39965133534646    1.44180679417877    2.11897491645946
H           6.85802254537954    1.38771375133354    1.77936288214411
H           6.36689421859692   -1.50159391499470   -1.33476487450649
H           3.91380782550279   -1.45315200064991   -1.00135092637890
H          12.73958740714800    0.56455545156530   -1.53121584064469
H          12.76184026778691   -2.16827650600211   -1.85125000127271
H          11.93885557364372   -4.61503827416437   -1.90115446045218
H           8.09577040815707   -5.52858097514853   -0.67646811582712
