24
0 1
C           1.01581058399402   -0.08188324990446    0.05172437819743
C           2.51048505400731   -0.04760796920215   -0.01547627342312
C           3.20205642352220    1.15731861960891   -0.10019346060244
C           4.57755688476501    1.18072717807322   -0.18465983242845
C           5.30582836832477   -0.01469085397012   -0.16185444287615
C           4.61055287409095   -1.23105530082419   -0.07474828359317
C           3.23673589285404   -1.23847540072695   -0.00969021760017
N           6.66759284210413    0.09187771541755   -0.29783249222993
N           7.35632189769955   -0.93324517658655    0.02408528709181
C           8.69078017925450   -0.88595951167086   -0.18850469975337
N           9.45780723540255   -0.00850371013059   -0.81455733266848
C          10.70597225468455   -0.49434166614231   -0.75475703014577
C          10.72691625103135   -1.69566100127494   -0.08016521382418
N           9.44184967967064   -1.93940823578603    0.27037668630088
H           9.08533674479286   -2.72729533312837    0.78579520318085
H           0.60452692473982    0.92007060484018    0.14278219814252
H           0.68602625508685   -0.67615329161031    0.90290981886859
H           0.60971228561917   -0.54193840417433   -0.84921024100932
H           2.64943115125414    2.08620601115994   -0.10694988124347
H           5.11990834894010    2.11085831877926   -0.25165941048643
H           5.17705808715017   -2.15022662185763   -0.08023063718406
H           2.70553540708790   -2.17875922805250    0.04650513194257
H          11.52572450733881    0.03542327262523   -1.19828237831364
H          11.53080386658447   -2.36111676546196    0.16027312365750
