30
0 1
C          -0.50467339952158    1.09428158433013    0.71941640762418
C           0.80651597445503    0.95596072882054    0.56389232204199
S           1.60407900789516   -0.35123697101096   -0.31917103920915
C           0.14499909695493   -1.17124524352374   -0.88758988248308
C          -1.09993300200707   -0.83056251258902   -0.57732782444590
N          -1.48570801038204    0.23935296505360    0.22574458039416
C          -2.82964634347057    0.46464286569027    0.49483776086316
C          -3.71557995859906   -0.61348570732173    0.63870616349655
C          -5.04766515066130   -0.39849964330326    0.88772879619571
C          -5.55424978157539    0.90385364030362    1.02017331787627
C          -4.66307264378374    1.98320233587625    0.87841556626619
C          -3.33412587613972    1.76792848695486    0.61773516949748
N          -6.89965828906896    1.02077073485250    1.21161086810624
N          -7.33690460179445    2.17999848273783    1.54805932588032
C          -8.67546251030678    2.33228246337054    1.64132831250158
N          -9.68072523041083    1.53258653453054    1.32294566471469
C         -10.80205387547191    2.22044307832262    1.58488768587228
C         -10.50115020759868    3.47069784324311    2.07638087241885
N          -9.14732116941167    3.53553300206267    2.10439830308246
H          -8.57713759040556    4.30397269994979    2.41588038275625
H          -0.87882957059641    1.91273108257473    1.31500069708269
H           1.49946738993963    1.65502089371160    0.99639419303812
H           0.35368723588703   -1.99362422439733   -1.54800645651699
H          -1.92041307599329   -1.37987644980273   -1.01405070161418
H          -3.34194513931493   -1.62510000953534    0.58277733970247
H          -5.72915883291172   -1.22534617458604    1.00952943886626
H          -5.05724911651192    2.98561935590175    0.94851179208839
H          -2.68071413208147    2.61490185043394    0.46661033725307
H         -11.76738056281995    1.78927783768569    1.40675744355559
H         -11.12737063429267    4.28021846966330    2.39120316309431
