22
0 1
N           1.19229918426545    0.02175948171177    0.11891479125656
C           2.33724742817857    0.04388784983290    0.05128826259661
C           3.74574189034275    0.06588457026374   -0.02853869182083
C           4.42988892575979    1.28740462877536   -0.01546894947607
C           5.80079832561487    1.30733102510476   -0.10511369786797
C           6.52385968006751    0.10612417331453   -0.18063405003714
C           5.82895675750251   -1.11563117328967   -0.19479657309100
C           4.45625922831531   -1.13488945548296   -0.12599604048264
N           7.87194680323152    0.19455685653100   -0.37318774434130
N           8.61068132185278   -0.74609671601848    0.05549634918371
C           9.92135437243450   -0.72273722793136   -0.26991867031611
N          10.61439761322995    0.05354618807403   -1.08887015351912
C          11.87382344479079   -0.39517517378772   -1.05162095454151
C          11.97872098828068   -1.47310893756297   -0.19434599413513
N          10.73511488486645   -1.67498018020376    0.29321302132771
H          10.43964519348047   -2.37717991192842    0.95201510809331
H           3.86963142820954    2.20801531368124    0.05671137658869
H           6.34671381997960    2.23754797207065   -0.09626126880672
H           6.39639078958580   -2.03004404696437   -0.28320601511990
H           3.91731108122195   -2.07132100624090   -0.14074984754717
H          12.64306495848562    0.06794092118427   -1.63712555059940
H          12.81857188030353   -2.07669515113379    0.08268529265596
