27
0 1
C           1.03899401863338   -0.05958279505138   -0.05316788874061
C           2.53382853592529   -0.02270626858075   -0.11874274715842
C           3.21646169458776    1.18204406690729   -0.26264189012530
C           4.59084393810244    1.21114416454250   -0.35505572713354
C           5.32872483116708    0.02355431658844   -0.28204534124495
C           4.64290623916313   -1.19183780759229   -0.13745968891673
C           3.26880230854754   -1.20588793653614   -0.06360263115308
N           6.68859796903134    0.13882217162039   -0.43180233442236
N           7.39353542119057   -0.86123821879806   -0.06736145565721
C           8.72500296154646   -0.80478700548983   -0.28942779355537
N           9.46746964326358    0.07264836341746   -0.94957645561507
C          10.72335420363715   -0.38551014623617   -0.88849841700499
C          10.77058579354233   -1.56636877061559   -0.17785353855515
N           9.49843430030490   -1.83161665443981    0.19749394196731
C           9.03427517484521   -2.94889142748442    0.96702041631586
H           0.63379977692151    0.92264511502119    0.17663703492793
H           0.70306618605033   -0.76749721657237    0.70223879958174
H           0.63220284979619   -0.38007920804757   -1.01301193288496
H           2.65693554427015    2.10560202110879   -0.30934891177058
H           5.12642586734115    2.14069134698408   -0.46762591012148
H           5.21260461900382   -2.10876026323163   -0.10684237647598
H           2.74597325844125   -2.14704546412045    0.03851802230530
H          11.52964555978938    0.14603799748604   -1.35396076472395
H          11.58936380290540   -2.20943692326885    0.07485120940175
H           9.30438552096991   -3.88627730893286    0.47767171626124
H           7.95148815142823   -2.87300683535854    1.04449953498112
H           9.47140182959506   -2.93311931331903    1.96717512951791
