23
0 1
F           1.07861128809277   -0.12928108533126    0.26419095766740
C           2.41926331980619   -0.11996393204775    0.11950941294014
C           3.16038041279382    0.84641136957359    0.78184755049526
C           4.52849003384906    0.86147139528802    0.62028401652673
C           5.15977730955467   -0.09952717071441   -0.18088141683774
C           4.38082118488310   -1.06298079452389   -0.84011299124688
C           3.01072226389082   -1.07131625015029   -0.69605215512189
N           6.51792962836846    0.02834440449085   -0.33443222901068
N           7.15373187163168   -1.00440688047638   -0.73358618324666
C           8.46600470874391   -0.89207408330550   -1.00566567961236
N           9.30089060804189    0.13889748256073   -1.07861402043721
C          10.47378724079189   -0.36252176962420   -1.46405996262992
C          10.39374379027396   -1.73649121780912   -1.62973802184740
N           9.11879071035018   -2.05908178207149   -1.34307586012284
N           8.55591727113953   -3.31908308792930   -1.27859611530357
H           2.65777086406297    1.57152859206434    1.40223860337663
H           5.14027173452845    1.59780751182228    1.11619141181984
H           4.87135106246744   -1.78106741314991   -1.47960403044498
H           2.39447279155456   -1.79781443454440   -1.20282055910600
H          11.32660239203426    0.27043207351048   -1.60838654661875
H          11.12203303893081   -2.46324712254719   -1.92463105035375
H           8.65306969997959   -3.81734110771285   -2.16043652155140
H           7.57294677423006   -3.19260469737234   -1.03832860933402
