28
0 1
F           1.00776649081344   -0.02058884066150   -0.21255406048258
C           2.35334280967106   -0.02725307263678   -0.28579964835238
C           3.06419728805679    0.99157918772702    0.33003396454764
C           4.43918539089085    0.98908594221264    0.24173139051437
C           5.10401823764872   -0.03806610519391   -0.44186155967411
C           4.35579711610326   -1.05458298981578   -1.05726709626768
C           2.98040069061455   -1.04804892422636   -0.98364036032908
N           6.47019474518461    0.06904753787069   -0.52865446334956
N           7.10446564913269   -0.99093539949761   -0.84939268674340
C           8.42427393264932   -0.89176821005480   -1.08782302227759
N           9.17411332602209    0.17631252946845   -1.29775083532990
C          10.39691096481493   -0.27248099270782   -1.60839721854066
C          10.42444725893686   -1.64819344888865   -1.59157121257773
N           9.16847497547829   -2.05415218742905   -1.26428999184791
C           8.74071993732076   -3.35865745222290   -1.12894622973718
C           7.58394265634676   -3.81999280090221   -0.56874207247494
C           7.48549846107428   -5.22622188641602   -0.62446530167796
C           8.55909271386253   -5.81273087313228   -1.21189805804938
S           9.72937286186653   -4.66330207676624   -1.72514458309305
H           2.53364494388689    1.76856155265148    0.85751760484868
H           5.02938941847792    1.76361542571503    0.70464722515604
H           4.87872281750117   -1.82496879263791   -1.60374519522284
H           2.38602898598565   -1.81396944900567   -1.45742819357672
H          11.19564289516869    0.40660022669947   -1.83135613352639
H          11.21690988097636   -2.34399644492920   -1.77997891216903
H           6.84303432334805   -3.17152998963324   -0.14030802992376
H           6.64775199206101   -5.77600541940947   -0.23525378836616
H           8.74661923610629   -6.85478704617696   -1.37696153147759
