29
0 1
C           1.42083244459181    0.25163551940668    0.08592326079032
C           2.90422474599895    0.11618548217451   -0.04065754994550
C           3.76634497166219    0.94767239277859    0.66877430227587
C           5.13314928360269    0.81189089499809    0.55291389708580
C           5.67211074513744   -0.15986879725035   -0.29751400102700
C           4.80730687421349   -0.99684065508642   -1.01971092207099
C           3.44660323160276   -0.85631665404213   -0.88321383838117
N           7.04539101965987   -0.23766159213923   -0.33401439823291
N           7.54974463391347   -1.03244652218038   -1.18023504422806
C           8.89383101650247   -1.07961277316831   -1.30448738435244
N           9.53496988646253   -2.20704736215103   -1.69969434672124
N          10.76556217302954   -1.90554009665182   -1.84727149313550
N           9.74979254454975   -0.05482015261659   -1.21972646931959
N          10.88926663902220   -0.61819868257243   -1.57725940415885
C          12.06445014387212    0.08939377563068   -1.64537393122126
C          13.34813406444415   -0.26721275080285   -1.98433368925466
N          14.14955740096920    0.81664477408292   -1.87466928844527
C          13.39090407378361    1.80333317705757   -1.48341163955154
N          12.10303062850452    1.41803962924787   -1.32515814197658
H          11.30152244020499    1.95521146541490   -1.03290542672153
H           1.15596721556850    0.96543137337460    0.86144804677586
H           0.97015551712109   -0.71077298815177    0.32334178320045
H           0.99435203547071    0.59071321667953   -0.85809943656726
H           3.35650754777678    1.70387441536088    1.32279485889813
H           5.80851267641246    1.45053212364657    1.10070761987988
H           5.23645347301892   -1.75176867855481   -1.66102561578233
H           2.78075200439006   -1.50710759209434   -1.43213887115589
H          13.71874319400502   -1.22258597659084   -2.29082831726786
H          13.73244737450765    2.80257303420015   -1.30536455938900
