22
0 1
N           1.43472842927893   -0.05428583982113   -0.15374533099579
C           2.57984399607391    0.00612885885653   -0.13993835685598
C           3.99019610736221    0.07419947585496   -0.12108613689202
C           4.62833144235755    1.31442346316188   -0.00473638917712
C           6.00151050844211    1.38045649411542   -0.00616434953516
C           6.76379957056070    0.20617686978148   -0.09553976568712
C           6.11683058253815   -1.03521124436703   -0.20805755116325
C           4.74346810853594   -1.09963552444621   -0.22689273611921
N           8.12176309844726    0.34831010497564   -0.19866717066169
N           8.85876849835790   -0.59400880011353    0.19580920680943
C          10.17620432913534   -0.55332375079495   -0.11460472545855
N          10.71948499366007   -0.10870601602797   -1.26634802645864
N          11.96865814519383   -0.41400699182306   -1.22645240535299
N          11.10587190821297   -1.14957886006161    0.65135245542894
N          12.17575239620480   -1.00496991852573   -0.07490789865297
N          13.40710160998053   -1.38382936953072    0.34486840394956
H           4.03351541645767    2.21230434874594    0.07460097960641
H           6.51468379697331    2.32506386862901    0.08154799491272
H           6.72136974899824   -1.92510436147004   -0.29884799512575
H           4.23731183982266   -2.04959823906379   -0.31803276495454
H          13.36245927150194   -2.18003358803743    0.96927760043669
H          14.03594620190344   -1.50117098003759   -0.44034503805315
