28
0 1
C          -0.52861949343393    1.14185230517640    0.63494938292753
C           0.77898439048254    1.04964288245440    0.42312946240259
S           1.58944905878236   -0.24915790391423   -0.45519386810287
C           0.14932606328697   -1.17872464259109   -0.87629947520334
C          -1.09516870296935   -0.87721942798752   -0.52502932035993
N          -1.49642434297377    0.23067205522554    0.21832908546106
C          -2.83345556284855    0.42803520709962    0.52142274440317
C          -3.68776675880283   -0.66534459521425    0.73755806324998
C          -5.01304526335063   -0.47118276274378    1.03398273356651
C          -5.54514711717396    0.82355212638636    1.12690536869166
C          -4.69108056769974    1.91925541182060    0.90710259755260
C          -3.36691801067137    1.72488842280555    0.61412551927440
N          -6.88297050658572    0.91456186165062    1.39586305440599
N          -7.35135919469870    2.07566165792050    1.59771748766085
C          -8.67778452715472    2.27989317211383    1.68660458990002
N          -9.60374852420627    1.86994988729212    0.76602546824917
N         -10.70389602409399    2.43450288338438    1.07576533613494
N          -9.23476068345819    3.11510858002882    2.56778603216024
N         -10.48830902392999    3.15595324858547    2.15112775759523
H         -11.19450801450278    3.71030987368394    2.61220527099263
H          -0.90698473424561    1.96253101768615    1.22477552783449
H           1.46048558703980    1.78848904507294    0.80519222542564
H           0.36565430375330   -2.03985435505040   -1.48281848701744
H          -1.90460290212283   -1.49848921393206   -0.87705860099936
H          -3.29419816913635   -1.67017976283301    0.70859674106845
H          -5.66805014974919   -1.30852878912502    1.21568589914870
H          -5.10821890029790    2.91352222705431    0.95720391778602
H          -2.74046222923916    2.58062958795182    0.41017548579123
