35
0 1
C          -0.77241966451852    1.14059565855198    0.63218193185147
C           0.53599866703010    0.99519514293014    0.45793445816641
S           1.31811331698033   -0.34804655802083   -0.37832911207024
C          -0.14565322569013   -1.21584310344692   -0.84529362244649
C          -1.38636127563928   -0.86359077515784   -0.52865836583665
N          -1.76252531950012    0.25974958983593    0.20356183990260
C          -3.09535993592231    0.49437711904483    0.49996003413556
C          -3.97693675977992   -0.57492184355961    0.72502543671223
C          -5.28996132174091   -0.34375145643110    1.04902728260849
C          -5.78450208196221    0.96529777396017    1.14957469283843
C          -4.90756295165066    2.03667086007678    0.89836549086011
C          -3.59360230797921    1.80543374421948    0.58844614018570
N          -7.09717102268592    1.09737142707801    1.50658967716523
N          -7.53445090319392    2.28754482358747    1.63377486758186
C          -8.84093508576738    2.47416544041010    1.90313214834034
N          -9.26479413193918    3.58080512195764    2.57053068691591
N         -10.53632161758464    3.54918212098306    2.57831057197862
N          -9.88415093682384    1.75206050688640    1.47919360244411
N         -10.90816947882272    2.46369530317981    1.91295254760386
C         -12.21274210873523    2.08875963397167    1.68737793242505
C         -12.70412620930643    0.99495793949011    1.02714916982421
C         -14.10970928789627    1.11378349691877    1.11632379998221
C         -14.35221516225418    2.25648508055562    1.81699845385799
O         -13.20144150240977    2.85623532992480    2.16769753672366
H          -1.13443687811463    1.98519800265991    1.19783495967945
H           1.23494058572724    1.71414226121574    0.84610648908178
H           0.05308274828110   -2.08354130113746   -1.44844749755908
H          -2.21072828018196   -1.45045319484850   -0.90454763839090
H          -3.61139402778084   -1.59021318657971    0.69045536059928
H          -5.96211051199780   -1.16350324800507    1.24790798414829
H          -5.29798590031411    3.04111268143638    0.95608250102601
H          -2.94661730826931    2.64306725602609    0.37385689055607
H         -12.12810272756762    0.22859179562810    0.55374181511641
H         -14.83558325419476    0.43805517595081    0.71422087998038
H         -15.26201413779441    2.73335138070881    2.12147105400925
