27
0 1
N           1.53364936241862    0.39204752927888    0.20564689213198
C           2.67275644648218    0.27834661476676    0.14961463523934
C           4.07759876030434    0.13612357096507    0.07847889186802
C           4.89614194915854    0.89466201943927    0.92073339818525
C           6.26432299461006    0.75696920136422    0.84607641599843
C           6.83191728683518   -0.13961542785897   -0.06766582269396
C           6.00462961891763   -0.89889178022032   -0.90974909994490
C           4.63821390102343   -0.76245897954507   -0.83637238824947
N           8.21259785472913   -0.19289418007444   -0.07917510583754
N           8.73111182084090   -1.05661082724069   -0.84371723475730
C          10.07135255564356   -1.08428191968587   -0.99195195558955
N          10.72469736110824   -2.22986155587279   -1.30747922593932
N          11.94406244439867   -1.92243910868600   -1.50687831422679
N          10.91186333274309   -0.04189463871733   -1.01099358738752
N          12.05051822843268   -0.61258311049460   -1.34859149575621
C          13.21183034369703    0.10002963750023   -1.51639220278971
C          14.48470396863526   -0.27423749421321   -1.88070193558196
N          15.27772634833596    0.81961340608326   -1.89316039136631
C          14.52614797028543    1.83012650485878   -1.55062427925702
N          13.25037578444035    1.45076091173257   -1.30602302715178
H          12.45796468501748    2.00864989982436   -1.02822727524563
H           4.44707550731816    1.58280184148967    1.62156055514473
H           6.91995205048630    1.32931770069153    1.48358257109699
H           6.46438043064706   -1.58507389697809   -1.60458677887548
H           3.98995587745441   -1.34199126515805   -1.47736723973617
H          14.85122392384992   -1.24911077640229   -2.12486474724288
H          14.86585919218654    2.84247612315295   -1.46885125203359
