31
0 1
C          -0.65885148945295    1.14946813702003    0.66375960390084
C           0.65122530628199    0.99264031571107    0.51543446588884
S           1.43910784922610   -0.36377843437249   -0.29536674086483
C          -0.02378039450007   -1.20683242757999   -0.81057814548562
C          -1.26716408823019   -0.84276452510662   -0.51962502637616
N          -1.64763929957745    0.27504295200242    0.21923840880354
C          -2.98461469160935    0.51168051730086    0.49808505089500
C          -3.87147771179731   -0.55877386656666    0.69322994474596
C          -5.19181726976510   -0.32979060584244    0.98843388475493
C          -5.68688644676363    0.97815023676917    1.09442190196706
C          -4.80278175372215    2.05116774260620    0.88156183647190
C          -3.48263460206133    1.82181217816675    0.59487832188097
N          -7.01224518819643    1.10412202771911    1.40908692017546
N          -7.45221783393486    2.29201289926163    1.55497821094160
C          -8.77438560316450    2.44820547451714    1.78779253226565
N          -9.25121174641696    3.53571544232088    2.44099878407231
N         -10.52818428391588    3.44790749315536    2.41565813225669
N          -9.78584074089943    1.68759588342011    1.34508783876667
N         -10.83764284570750    2.35583702887104    1.75284325015479
C         -12.17948160179059    1.93722450218101    1.49261821194378
H          -1.02433829428824    2.00116698810679    1.21612303883490
H           1.34855209103408    1.70930831917461    0.91068843580484
H           0.17857861964780   -2.06801929285626   -1.42186173844487
H          -2.08937555328529   -1.41299000494220   -0.92473784875828
H          -3.50621099884984   -1.57403026282054    0.65495427680178
H          -5.87033565761227   -1.15044074983284    1.16048734066564
H          -5.19268831350111    3.05547843230944    0.94501614020380
H          -2.83111747394965    2.66200232260946    0.40524005650115
H         -12.14012572479760    0.96142137144967    1.01405114610291
H         -12.67395992291218    2.65567393687080    0.83746120422845
H         -12.73066433548884    1.87708596837770    2.43098056090025
