29
0 1
C           1.37977999736194    0.32284406426175    0.09788937310972
C           2.86778090886308    0.18278418455780    0.06418217768583
C           3.67754293938625    0.86228860896590    0.96916953240713
C           5.04875881730582    0.72062497484455    0.93548134076374
C           5.64483434737136   -0.10577199135910   -0.02253509008976
C           4.83285200761764   -0.79364417921738   -0.93719897019074
C           3.46700299482783   -0.64762476219198   -0.88518716755820
N           7.02002123102249   -0.18726518936426    0.01755674053368
N           7.57148119123213   -0.88451677772074   -0.87702065371718
C           8.91231148789161   -0.93648350547064   -0.98906079273388
N           9.55178525815584   -2.08039213913541   -1.35462818323073
N          10.77273769006982   -1.77898875058332   -1.54648607935204
N           9.76313551067409    0.09341518781728   -0.96875198288926
N          10.89836066995350   -0.47818530625912   -1.33670111081624
C          12.06568798098126    0.23447382763879   -1.48969593868342
C          12.30867581433364    1.56738318315955   -1.29401712434405
C          13.67647258647766    1.74022220691211   -1.60536813623299
C          14.14514568378463    0.51113014843737   -1.95963476453194
O          13.16978687309469   -0.41082118124082   -1.89206284293094
H           1.06907837740282    1.04322672229873    0.84969275159092
H           0.91760680318177   -0.63773268978027    0.32370544646977
H           1.00798162651597    0.64569306791185   -0.87355065063990
H           3.22356550089021    1.50664102745032    1.70808363237543
H           5.68391216430422    1.24496115160663    1.63169382197619
H           5.30402782548661   -1.43807939895497   -1.66372800224197
H           2.84152187526559   -1.18166675902719   -1.58599014932171
H          11.60032831875308    2.30151008357515   -0.97373545986304
H          14.23026962619756    2.65525611065047   -1.56916566449736
H          15.11401389159740    0.17280808021631   -2.26742605304665
