35
0 1
C          -0.74037805078046    1.14141492303827    0.61577339950114
C           0.56624370090609    0.99115519763403    0.43234746700670
S           1.33869606770373   -0.36035377215750   -0.40019121383849
C          -0.13164049850096   -1.22529479515236   -0.85319151735835
C          -1.36878597225207   -0.86754111273001   -0.52907599573565
N          -1.73609262291710    0.26024730995236    0.20105723801128
C          -3.06599915345364    0.49797755218949    0.50856886909560
C          -3.94578907463767   -0.56976214601186    0.74752619610708
C          -5.25641358463391   -0.33646742724025    1.07928309342701
C          -5.75000808312286    0.97330558434463    1.17503204642282
C          -4.87476023040183    2.04302972110220    0.91198406463979
C          -3.56300688192736    1.80959430643641    0.59364047018901
N          -7.06116642222913    1.10628594925441    1.53674703172771
N          -7.49908037401531    2.29639458454513    1.66389793365411
C          -8.80652110435591    2.47513750151571    1.93572735094640
N          -9.23885415501998    3.58705478944708    2.58491121387905
N         -10.51196130595313    3.53756430007070    2.60361707345832
N          -9.84420884188012    1.73285987733151    1.53347299782876
N         -10.86947389665557    2.43509324019244    1.96100767598786
C         -12.17584839526715    2.06254363905704    1.77020891996884
C         -13.29070446855325    2.71825261136031    2.21150517494890
C         -14.46813770366881    2.03833671135034    1.84522175059937
C         -14.22313282409953    0.89823906127540    1.14527533350327
S         -12.54374272709738    0.61265011335130    0.90753379481837
H          -1.09581405328567    1.99154576690832    1.17725577699952
H           1.27029998092152    1.71133800706492    0.80887523810629
H           0.05967258394786   -2.09579562063774   -1.45474095750369
H          -2.19805371629319   -1.45270757592645   -0.89689865416663
H          -3.58027865933333   -1.58522515993729    0.71669167467472
H          -5.92780633650134   -1.15447974730152    1.28775910713872
H          -5.26457063049865    3.04794912318565    0.96635662461769
H          -2.91733862639570    2.64588855780294    0.36969781673988
H         -13.24901078482406    3.63591032760845    2.76746705947469
H         -15.45513592649374    2.38361551141463    2.09348402945868
H         -14.93336722842745    0.20051308966249    0.74905191567474
