20
0 1
N           1.21444686812397   -0.08425643848317    0.40946997379744
C           2.35199248483769   -0.06655689489530    0.26839695415158
C           3.75455590667258   -0.04784937106866    0.09538563193494
C           4.41024075719883    1.16328742147679   -0.14937412225006
C           5.77404832543687    1.17785730413173   -0.33164115164305
C           6.50643239507026   -0.01321068973920   -0.24136014947203
C           5.84379115518215   -1.22546183837092    0.00247124586825
C           4.47790768404345   -1.24299951051360    0.16371122203465
N           7.85551994228138    0.06966688565275   -0.49580121373752
N           8.59106255845557   -0.83952726030755   -0.03804255133142
C           9.93089030002319   -0.77886882827880   -0.20261512724302
N          10.71110921902460    0.31263823316747    0.05054078808920
N          11.92024704567830   -0.07967198652230   -0.02034672794845
N          10.68833055752206   -1.85283967829845   -0.42530645929037
N          11.90497925394519   -1.35673645285175   -0.32142148246680
H          12.73393946824977   -1.92119291643650   -0.43968873405029
H           3.83732613051065    2.07706500271851   -0.20230634566132
H           6.30375494452486    2.09865212999348   -0.51828806663348
H           6.42622175024941   -2.13378014161637    0.03891028994461
H           3.95636325296934   -2.17090496975788    0.34714602590712
