21
0 1
F           1.30017396910605   -0.00827037675211   -0.11387298635295
C           2.64545289243585   -0.02045375344997   -0.11913712398090
C           3.32501104514522    1.18604580403642   -0.18552201112066
C           4.70339163690849    1.16903903139590   -0.19941988767477
C           5.39520040535283   -0.04668702924285   -0.13809713291564
C           4.68064319320365   -1.25267134818658   -0.06938974829708
C           3.30395775739097   -1.24059389474922   -0.06221487671987
N           6.77019073294989    0.04036292033330   -0.18498459832565
N           7.40991240039971   -1.03974038627995    0.00803102062694
C           8.75673048015781   -0.98347714940731   -0.11667022018775
N           9.53408627550761   -1.99738659769658    0.30039817637133
N          10.74518600015793   -1.69032401275149   -0.00420284354798
N           9.50265154275713   -0.02462717502020   -0.70648532375605
N          10.69534029077979   -0.52051511375780   -0.60158108597680
N          11.80704240472885    0.13723731923993   -1.01402470618129
H           2.76991596132969    2.10980549162263   -0.22809183303658
H           5.27248545458055    2.08354818452331   -0.25086105841143
H           5.23458130626321   -2.17774682905907   -0.02732593664575
H           2.73092941690974   -2.15346205624079   -0.01368369351009
H          11.59539637196960    0.78658602275962   -1.76261921504698
H          12.55885046196542   -0.50973905131705   -1.21953491531009
