19
0 1
F           0.79358391922402   -0.25723700665747   -0.03158326354724
C           2.11968489854031   -0.11670843948753   -0.02388375473576
S           2.81961572663173    1.45814842412918   -0.01379372813685
C           4.41488429320772    0.73129967422608   -0.00807354943007
C           4.34156441856950   -0.64566574416147   -0.01403692747074
C           3.02804749896534   -1.13295221035846   -0.02306687571704
N           5.45731455290801    1.58813542440105    0.00271335230444
N           6.63425866890493    1.07314116967563    0.00649983923149
C           7.66102633297428    1.96333397630812    0.01910186437316
C           7.65319043550242    3.39406440413272    0.02869778824955
C           8.95173333129241    3.79368478658279    0.04087592884554
C           8.99474326774640    1.57214233050568    0.02613919838548
N           9.75347896747384    2.68438727752055    0.03925072829373
H          10.76035872629627    2.70104762212023    0.04693820896402
H           5.22427044575224   -1.25817140344155   -0.01166145391872
H           2.75389718230961   -2.17182929533295   -0.02863059032906
H           6.77661194956568    4.00808366293246    0.02635352894452
H           9.37481434163434    4.77906315647129    0.05067976380757
H           9.41321104250096    0.58617219043366    0.02258994188599
