25
0 1
C           0.95105231091435   -0.14354753190323    0.04005665241192
C           2.43432769288568   -0.02247116253130    0.04522440796435
S           3.19797182085180    1.52627561148715    0.05584532792551
C           4.78394386140903    0.78874578146873    0.05827761931275
C           4.68100162299690   -0.58764993422489    0.05084251168080
C           3.35628095715587   -1.03554685467171    0.04356917899005
N           5.83488658267620    1.63211716921582    0.06846530724122
N           7.00888043015773    1.10670011379350    0.07067424188613
C           8.03996203157296    1.99369257495960    0.08325653171672
C           8.03990443151834    3.42225322795740    0.09367936405294
C           9.34247047463335    3.81168765397934    0.10564374845259
C           9.37318096624475    1.60017049390608    0.08961775404240
N          10.14539821949029    2.70285044448214    0.10312973975031
C          11.57962139275504    2.73566480286387    0.11488735958075
H           0.49055019913917    0.84052622746577    0.03673072088696
H           0.60979010495371   -0.68727174140968    0.92111214638027
H           0.61603396220753   -0.69076278345457   -0.84116369262275
H           5.54940524569092   -1.22109894667795    0.05106088580065
H           3.07759069149704   -2.07533791387426    0.03731730891065
H           7.16901999513897    4.04493919570974    0.09204824956461
H           9.77232975565376    4.79481077737082    0.11586812954567
H           9.78627340109332    0.61139444643454    0.08536934536921
H          11.96733578526634    1.71875352207846    0.10558540578823
H          11.94390594689795    3.24497753238995    1.01042695225970
H          11.95779211719900    3.26660729318470   -0.76205519689161
