23
0 1
C           0.90439189526915   -0.13663080977095   -0.09915124023833
C           2.38720007472157   -0.03040411069584   -0.09424165335778
S           3.16716412448293    1.50611371144811   -0.09198763777322
C           4.74379215322108    0.74829869586939   -0.08429375928946
C           4.62429720043889   -0.63038329536148   -0.08435143913414
C           3.29698811380881   -1.05906201092497   -0.08986746437627
N           5.80359032747094    1.57274289729954   -0.07618037745522
N           6.97281229151172    1.03966413339652   -0.06870351371923
C           8.00378472157278    1.93334854898363   -0.05605627457229
C           7.97818145541704    3.37212533175391   -0.05080426618352
C           9.26120681530048    3.79731405598925   -0.03444179683294
C           9.32768242803012    1.55269650668456   -0.04259963677347
N          10.09288157102978    2.68867747760560   -0.02921246059426
C          11.41506041433327    2.72888002970548   -0.01178444769672
N          12.55970257661025    2.77002798839352    0.00301126460527
H           0.45112406431060    0.85072401143235   -0.10434349212174
H           0.55947001235245   -0.67693779175836    0.78247090535359
H           0.56543237160495   -0.68375016006284   -0.97883497737129
H           5.48587663494933   -1.27307684566156   -0.07999373505961
H           3.00236908161830   -2.09412805431887   -0.09034554456390
H           7.09106373919494    3.97148491649600   -0.05865964778148
H           9.67821932745973    4.78553740945992   -0.02559334955662
H           9.76769860529096    0.57593736403710   -0.04122545550738
