35
0 1
C          -0.77464492593643   -1.00327730585514   -0.12717410768150
C           0.42870625530732   -1.23084444679384   -0.63865851502186
S           1.51636357588543    0.02041016839358   -1.24502767091122
C           0.70712126836789    1.39709260324835   -0.49627642113297
C          -0.52393880879913    1.37249015298774    0.00127416802026
N          -1.35858887867037    0.25382985424807    0.03005827865531
C          -2.68267781625869    0.37871179666200    0.35425068636898
S          -3.65494405950676   -1.01879760782389    0.72005759911670
C          -5.06700388796914   -0.00657168756720    0.98871804207108
C          -4.75091084772191    1.32475899017550    0.79079239961752
C          -3.42516338814263    1.54339549685265    0.43010535090805
N          -6.20011649060341   -0.64256041628224    1.30433347429560
N          -7.23922858065651    0.08573099587723    1.54496786818542
C          -8.37274946036436   -0.60867474450238    1.83409477910208
C          -8.60895286260940   -2.01989349040624    1.88980873655208
C          -9.91526241285650   -2.18897069016478    2.21553848270955
C          -9.57549678707795    0.00649804636871    2.13606210092031
N         -10.50802824153495   -0.95472530929410    2.36734301680418
C         -11.82666087533645   -0.71244236238393    2.69321978236297
C         -12.51932506961051    0.46347111197683    2.86459030141975
N         -13.81039978891430    0.19524727590525    3.18094288411240
C         -13.91904944171464   -1.09968953086280    3.20625691911097
N         -12.73977071862413   -1.71109829828054    2.91613171925730
H         -12.56410734174315   -2.70077492052882    2.87269406896513
H          -1.37855056276213   -1.82553900829283    0.22750234200373
H           0.83544361505453   -2.22349237993605   -0.70643241205067
H           1.31624461238036    2.28240580332275   -0.45079890226423
H          -0.93011880423682    2.25593072723740    0.46987603595157
H          -5.49223250844214    2.09549098647827    0.90066928103835
H          -3.03544924176470    2.52047341208528    0.20778220370936
H          -7.87864362099208   -2.78062070672103    1.70441244022046
H         -10.46746605477196   -3.09900990977873    2.35059689485922
H          -9.80674169333088    1.04910343580223    2.19790242439945
H         -12.17209182308592    1.47193397745513    2.78064783195194
H         -14.81731433295761   -1.63962201960203    3.42559791637288
