21
0 1
F           0.82538931758742   -0.30814337321981    0.12462810192357
C           2.14816068029426   -0.14228422330524    0.08055423358042
S           2.81963953614969    1.44582936950994    0.10506143517042
C           4.42680127478384    0.75092935543624    0.02790797492750
C           4.37786589360922   -0.62633762129260   -0.01458950238593
C           3.07413000688703   -1.13928275739947    0.01523753365833
N           5.45763892117020    1.62228015468459    0.01170194311993
N           6.63817953910274    1.11012377189955   -0.01200521711374
C           7.66691075145963    1.99041779583419   -0.03697397283921
C           7.68392883939710    3.41716501525350   -0.05560299990483
C           8.99221116744289    3.79581691517153   -0.06899625123731
C           9.00102171482350    1.57791523952676   -0.03688092167582
N           9.77253259934826    2.67327518965640   -0.05121284706894
N          11.16035878279452    2.68980861605342   -0.14076629686261
H           5.27147735660007   -1.22018804767880   -0.06707460878614
H           2.82015366248656   -2.18304364181032   -0.00880827406348
H           6.82110005509299    4.05049516191233   -0.05719729071913
H           9.43850331810356    4.77073502784329   -0.08681002778527
H           9.40504445278264    0.58562787497464   -0.02805697249358
H          11.54037482499421    1.79840801351491    0.16331626604982
H          11.54320730508971    3.44393216343503    0.42260769450600
