35
0 1
C          -0.53408261231377    1.34430735146049   -0.14940496134702
C           0.78963386036551    1.37588537571049   -0.25021453932078
S           1.85552252398178    0.01875292586487    0.11361917203091
C           0.62217464066726   -1.24411251457433    0.08562029335716
C          -0.68475887258300   -1.02368375139078    0.15271823612182
N          -1.28503203718783    0.23280486837491    0.23563304811651
C          -2.61493466196460    0.35981329821547    0.53408321194325
S          -3.64905380428992   -1.03540960674412    0.65647101319983
C          -5.03081661915553   -0.01807873518343    1.03792916944681
C          -4.65904185284518    1.31340214862893    1.05673025643019
C          -3.31202242946076    1.52783896717640    0.78316206738056
N          -6.18500088769659   -0.65056990632123    1.27301800965943
N          -7.21819127681835    0.08196115892631    1.52875987501056
C          -8.36076311129057   -0.60703584477234    1.78816314715532
C          -8.60509031053363   -2.01909496115015    1.84336596155338
C          -9.91468080077373   -2.18304976250648    2.15138856887676
C          -9.56492419122827    0.01219170081222    2.07198390133412
N         -10.50499013024532   -0.94420391401007    2.29181339005025
C         -11.82705087871070   -0.71460535465304    2.60209206787150
C         -12.81201131623901   -1.62664659554114    2.86051731793627
C         -14.05406049684811   -1.01766071126462    3.14038334187074
C         -14.00441100398534    0.33592482061383    3.09336812477665
S         -12.43049137884823    0.91470017739023    2.70322369856091
H          -1.11409220687628    2.21287218162000   -0.42031559689526
H           1.30929252426484    2.25218215938292   -0.59368146666541
H           1.02470042565040   -2.23651622489046   -0.00599876878672
H          -1.37846012619119   -1.85116875798409    0.12503365298936
H          -5.37083651599457    2.08681853869950    1.28114983804253
H          -2.86158718245870    2.50374544572822    0.79665077315370
H          -7.87429491950467   -2.78241676865337    1.67066590670067
H         -10.48206722652863   -3.08223235946672    2.28260953541831
H          -9.79511458961842    1.05709809276094    2.12770138695564
H         -12.66555403299729   -2.69053739679876    2.85528491970800
H         -14.94592096839430   -1.57322172383164    3.36758707937560
H         -14.79163753334804    1.04237567836998    3.26290836798808
