29
0 1
C           0.76751162704008   -0.08144235475214   -0.00464181528390
C           2.24971104269935    0.04325572000593    0.01166777296903
S           3.01155669576084    1.59190422492119    0.00887732406585
C           4.59792200232721    0.85524397270698    0.03479525027062
C           4.49553208993229   -0.52275368494452    0.04421870315219
C           3.17245457937714   -0.97070486666220    0.03121474326594
N           5.65046472613430    1.69324507909124    0.04603731900591
N           6.82174080403316    1.16117297667145    0.06459277577463
C           7.85621104837397    2.04380556269244    0.08132916690818
C           7.85405582922873    3.47766338637787    0.07975389666060
C           9.14927247470608    3.87508606182806    0.10563054262834
C           9.18292162115559    1.65115951056793    0.10822904502388
N           9.96406901799104    2.76138656975132    0.12340962719962
C          11.34195878098102    2.77638640880696    0.15513486841386
C          12.18033397648415    3.85579519154338    0.17407124807015
C          13.54140483111942    3.48373360745474    0.20750595565625
C          13.72430006511890    2.14075045946023    0.21359056984670
S          12.23304363033688    1.28168702016220    0.17845318967109
H           0.30288512054699    0.90057891201736   -0.02375334540689
H           0.42078442596302   -0.61609694202625    0.87988355866011
H           0.44196837205083   -0.64081257546698   -0.88182993545010
H           5.36572764774344   -1.15357643520479    0.06053599497259
H           2.89296342719661   -2.01016649363898    0.03614453955305
H           6.97992621741624    4.09569729114952    0.06138223279182
H           9.56472311317360    4.86241410647107    0.11315357509770
H           9.59907754749060    0.66371807841345    0.11784643051941
H          11.84937554034660    4.87744096843801    0.16490985861190
H          14.34730355269943    4.19490198918206    0.22634933903244
H          14.64237019257257    1.58910625498249    0.23661756831903
