22
0 1
C           0.95704130930817   -0.08712476294216    0.04909397739163
C           2.43993357084758    0.02694078026226    0.05341878868540
S           3.21180275326999    1.56899276962207    0.06167489713122
C           4.79270622812587    0.82071106102505    0.06451961323444
C           4.68124153280914   -0.55687188499872    0.05882010185832
C           3.35550928186643   -0.99463631571450    0.05268862967396
N           5.84898291074581    1.65384245598404    0.07410936527403
N           7.01952537866306    1.12506269405306    0.07668976915915
C           8.05122909652207    2.01819291124295    0.08964850014053
C           8.03465386745403    3.44623294516364    0.10094738330586
C           9.33099338146766    3.86729164539920    0.11358517959341
C           9.38425652818865    1.62397077387102    0.09592342993838
N          10.10545962728669    2.75367579160734    0.11013836315479
F          11.47353759057358    2.78537378501757    0.12057805962691
H           0.49977076130047    0.89837333108438    0.04655707688191
H           0.61470590019522   -0.63064729598314    0.92973058631729
H           0.61976925140991   -0.63320239033777   -0.83185613080089
H           5.54618404157621   -1.19490234979067    0.05959884538759
H           3.06838492974374   -2.03179252726475    0.04798699344234
H           7.15467991590192    4.05547329383706    0.09951359848750
H           9.76392200387198    4.84667367113977    0.12466010605663
H           9.82739013887182    0.65058961772232    0.09135286605960
