28
0 1
C          -0.78582131786007   -1.01969351332164   -0.15850105407042
C           0.41396302988283   -1.25368137779552   -0.67512841008083
S           1.51474871477264   -0.00986097033034   -1.27035775051127
C           0.71618123469800    1.36967660071327   -0.51711872880532
C          -0.51311696991850    1.35320654434401   -0.01557310407123
N          -1.35742090191435    0.24135150977775    0.01371602739703
C          -2.67800082930671    0.37590211172754    0.34340308267393
S          -3.66680165831556   -1.01511190829742    0.68667144679194
C          -5.06496211757789    0.00987259006246    0.97671889537504
C          -4.73206942284813    1.34067723418514    0.80150675864688
C          -3.40558512167123    1.54912317409189    0.44201584273376
N          -6.20638396515466   -0.61222938869168    1.29062374138893
N          -7.23269495697722    0.12982405203643    1.53824847750088
C          -8.37661681899543   -0.55063513068204    1.83383165789557
C          -8.63250275943374   -1.95451567842727    1.89122111116853
C          -9.94373438679562   -2.11596631478611    2.22893001325963
C          -9.56783383178657    0.09467416633372    2.14542110834122
N         -10.46781779685145   -0.87391969439035    2.37277222898937
F         -11.77357418354378   -0.63817165262214    2.71217815832836
H          -1.39723179427464   -1.84010339523479    0.18719716389536
H           0.80928431410619   -2.24983230717661   -0.75577633996962
H           1.32954349122135    2.25141986450938   -0.47671401604302
H          -0.91069388851094    2.23942589457790    0.45284225836666
H          -5.46365064241097    2.11773785332549    0.92779794791201
H          -3.00455305961018    2.52508186903590    0.23771105535582
H          -7.91335355386705   -2.72387534890936    1.69943403163431
H         -10.54078643312936   -2.99268379522331    2.37696416110988
H          -9.80272437392794    1.13568701116928    2.21371423478557
