24
0 1
C           0.82736567384667   -0.18101809695382   -0.02914831088965
C           2.31087655171857   -0.07383188385038   -0.02952654383375
S           3.09135180753856    1.46501658886858   -0.01765365426961
C           4.66803402228666    0.70848495862725   -0.02285817051068
C           4.54920417354149   -0.66813781602149   -0.03381951846194
C           3.22087523354547   -1.09971223140506   -0.03744163656114
N           5.73151948856899    1.53372358945149   -0.01274605446310
N           6.89461661862253    0.98891994545231   -0.01498721355460
C           7.94125628449977    1.86255040890967   -0.00045594177240
C           7.99257616386647    3.28258927044134    0.01532782565612
N           9.23598441956723    3.69972833578338    0.02846896855901
C           9.28167156741442    1.47981773895018    0.00450531584748
N          10.00647483203271    2.60567946179548    0.02197508211255
C          11.43429253564274    2.73746990842932    0.03542416285507
H           0.37387743167123    0.80635493636742   -0.02694970190642
H           0.48562546571585   -0.72578185902197    0.85112160492024
H           0.48464692585834   -0.72274188687146   -0.91083963258300
H           5.41123456137593   -1.31045321189423   -0.03841933378897
H           2.92862753017366   -2.13559600181231   -0.04538957476479
H           7.17245244028551    3.97107503841131    0.01695830073524
H           9.72269259286423    0.50430750435947   -0.00301063076687
H          11.89072044658241    1.75019914602715    0.02502915903406
H          11.74779661447502    3.27730661377581    0.93050976825441
H          11.76208661830551    3.30274954218056   -0.83850426984726
