25
0 1
F           0.91444293387587   -0.13839198791915   -0.01849474202558
C           2.24109664095679   -0.03275183558401    0.00573870442939
S           2.98242315577969    1.52140841710890    0.00899629223684
C           4.55529574476534    0.75086562805195    0.04378556348131
C           4.44544203548387   -0.62554369677116    0.05142668407985
C           3.12107661025409   -1.07565817444506    0.02973042652028
N           5.62633310750625    1.56955648217027    0.05891326415641
N           6.78012838274646    1.00708414528747    0.08189609014494
C           7.84369114496863    1.85495148276680    0.09761566701202
C           7.92486316292178    3.27726656031119    0.09414218962459
N           9.17293366382841    3.67020414909478    0.11532955910136
C           9.17171745808957    1.43698761109300    0.12208032338591
N           9.92414740887935    2.55098776974092    0.13167375325088
C          11.29967754752933    2.65584508332160    0.15520671307425
C          12.31649867880508    1.73072276918637    0.17407753653197
N          13.50718115325519    2.37600578656961    0.19578440313029
C          13.23698878989834    3.65119904375358    0.18641793196482
N          11.90267700089625    3.88240410402152    0.16341863037377
H          11.39807417952184    4.75504076055299    0.15281370906179
H           5.31239365587384   -1.25989566649126    0.07232340166049
H           2.81720452647167   -2.10609929489422    0.03130064981352
H           7.11923935742882    3.98239828776244    0.07774851732410
H           9.59340498362208    0.45447121937921    0.13254150700599
H          12.26439053434905    0.66175086245751    0.17525798783252
H          13.97051814229258    4.43114049347482    0.19764523682829
