27
0 1
C          -0.79592997153933   -1.03772387069043   -0.14502952981710
C           0.40215188728336   -1.28183387495517   -0.66102794533049
S           1.50876073893754   -0.04748773909327   -1.26496096256079
C           0.72115553129625    1.34009910545742   -0.51596683979053
C          -0.50816512816923    1.33394041334885   -0.01388935658215
N          -1.36003493257339    0.22805128824318    0.01835218827179
C          -2.68007727143511    0.37274090105868    0.34516662467294
S          -3.67772224405704   -1.00950513158648    0.69685395765782
C          -5.06961749400639    0.02658978917161    0.97718796528595
C          -4.72859660862356    1.35421581565824    0.79250674482320
C          -3.40031953719339    1.55166393236960    0.43380933600639
N          -6.21403236827018   -0.58748925513288    1.29542001157012
N          -7.23806105442248    0.15889157498445    1.53456545311946
C          -8.38296303418704   -0.51975896774188    1.83749513116962
C          -8.66734948923814   -1.91197781727473    1.91563649678738
N          -9.92135056347254   -2.11400154725885    2.24088729503596
C          -9.59382833165082    0.09056226661779    2.14893978563725
N         -10.46856131334181   -0.90233247787229    2.37957089997021
H         -11.44103430826503   -0.82232729269693    2.63224207012705
H          -1.41135543465605   -1.85221549109681    0.20765663989635
H           0.79247526229386   -2.28056355193188   -0.73440425932933
H           1.34283285143285    2.21677262412682   -0.47439598943901
H          -0.89877414931927    2.22373834660371    0.45482402608384
H          -5.45516980114610    2.13733171861617    0.91177933876950
H          -2.99252931282532    2.52352903660584    0.22272295159192
H          -7.99629500871116   -2.72806234804195    1.74291464516633
H          -9.85573891414023    1.12597255251118    2.21443332120638
