34
0 1
C          -0.89009583749101   -0.94529109954950   -0.52313891337370
C           0.29108672264170   -1.14041558128978   -1.09571760026940
S           1.51897027287124    0.10506925351483   -1.32753760124629
C           0.83038036824522    1.30284026094454   -0.23316128650008
C          -0.40401599234321    1.26587900358741    0.25497371875903
N          -1.34423800604239    0.26599085188128   -0.00071860030306
C          -2.64681951105082    0.41953426833609    0.38623250074577
S          -3.74215923171518   -0.93322029551220    0.42455791612748
C          -5.05099573779113    0.10148543765677    0.97771165051440
C          -4.61206818995672    1.40737899913734    1.11040293489236
C          -3.27504556509707    1.58938288753185    0.77944347188788
N          -6.22498377955574   -0.49473109643082    1.19793769828162
N          -7.21173477923639    0.25270885131295    1.56617482950035
C          -8.37065304113340   -0.41812224784764    1.81420223315760
C          -8.67829305062930   -1.81052526643216    1.79986304232597
N          -9.92669088336675   -2.01822281806767    2.12963018300199
C          -9.56475407468390    0.18610393809234    2.18445746670164
N         -10.46368774114617   -0.80582620628719    2.36042520847445
C         -11.78289514584927   -0.69535858067381    2.73973397077620
C         -12.66266624523936   -1.71832720242005    2.94762390376215
C         -13.93694976273146   -1.25305880910635    3.33394512244645
C         -14.00713459178215    0.09938001183253    3.41283816110500
S         -12.51116747852620    0.85554609161178    3.01570804545120
H          -1.58424730905369   -1.76599208565768   -0.41907918463717
H           0.58699947299305   -2.10751775448050   -1.45963950860426
H           1.51763127915171    2.08453680018680    0.03640384738018
H          -0.72918436992003    2.02986315431729    0.94373401462726
H          -5.27537808840019    2.18724373157803    1.43805352795198
H          -2.79464662550348    2.55081162489607    0.80049935060860
H          -8.02347311552760   -2.62480696831061    1.56513187409604
H          -9.81439673980555    1.21773025207822    2.32295928109436
H         -12.38959582873022   -2.74911989331797    2.82503998992983
H         -14.76669896268145   -1.90281560455584    3.54539472955104
H         -14.84366843091287    0.71294609144299    3.68033402178339
