20
0 1
N           1.02196284318273   -0.24740285769500    0.04671921026120
C           2.16432204059680   -0.13689620566581    0.05224892916285
C           3.55644661480410   -0.02076347451102    0.05906294558185
S           4.32862434693779    1.52582904046442    0.06645495915045
C           5.89206491218465    0.75729146859847    0.07298874766847
C           5.78363975203911   -0.62688089440192    0.06920256494425
C           4.46578902434753   -1.06388620828104    0.06139168238886
N           6.95953815958230    1.57831160673138    0.08251743768252
N           8.11795164896581    1.02915225854708    0.08750383206249
C           9.16650339943606    1.90017075812949    0.09969743629431
C           9.20776537898531    3.33340912701131    0.10799347678449
N          10.43303496002885    3.76684920354906    0.12045906874817
C          10.49609716704493    1.51794604322787    0.10838840653825
N          11.22339327093520    2.66752514822245    0.12082640592980
C          12.55139319082244    2.74647635361014    0.13309397893254
N          13.69404168533782    2.78486114678781    0.14352859590226
H           6.64942324679513   -1.26379536796848    0.07243907122319
H           4.16249848544939   -2.09595959164791    0.05761900109802
H           8.37883478772507    4.01154160083637    0.10492273053367
H          10.95328508479964    0.54978084445092    0.10676151911427
