21
0 1
N           1.01153190698508   -0.22154676539758    0.05956772312293
C           2.15356346870390   -0.09986493863346    0.06263363849519
C           3.54263033415217    0.02925715134373    0.06833654234593
S           4.30411306987492    1.58594829867537    0.02849238376912
C           5.87386864316755    0.83406491882803    0.05852814788284
C           5.77795369903683   -0.54868606673269    0.10031685880026
C           4.46376012199139   -1.00047562299211    0.10602038892539
N           6.93796217309723    1.66424864369856    0.06097767380176
N           8.09565068565793    1.10758047224452    0.04025795287580
C           9.15641269069690    1.95281806135278    0.07169023592291
C           9.24138217439887    3.36884893275920    0.15264402214898
N          10.49641583899150    3.75241991019008    0.17963465457689
C          10.49062712007105    1.53055420015090    0.03861090324244
N          11.22937219609896    2.63908948532787    0.10596315389553
N          12.60606503815600    2.71394344184712    0.06211618353972
H           6.65030233442147   -1.17582403414114    0.12658433528748
H           4.17292790485661   -2.03594950135937    0.13500810966979
H           8.44100674865860    4.07863233295654    0.19200592127086
H          10.91745303977909    0.55194816814732   -0.02231100224091
H          13.02940410984972    2.33974495251245    0.90948484041390
H          12.86192670135414    3.69246795922187   -0.04409266774672
