26
0 1
N           1.06572182592522   -0.23539898839962   -0.20958680534642
C           2.20873859539920   -0.12597769001150   -0.18579322426209
C           3.59862915721465   -0.00828673455103   -0.15807087667549
S           4.37216398225258    1.54190048932667   -0.14978421219444
C           5.93501733354200    0.77648438568574   -0.11592923656529
C           5.82816953753569   -0.60658558032090   -0.11130782002615
C           4.51072094772904   -1.04695225134972   -0.13509834266672
N           7.00602069219028    1.59660899148650   -0.09704574964281
N           8.15850034555097    1.02863729329539   -0.07825420846428
C           9.22526736203449    1.86671930390130   -0.05771201695680
C           9.31881821451634    3.29112206792022   -0.05637346897359
N          10.56711581268597    3.67366815597509   -0.03307250638296
C          10.55103806064318    1.44133439767408   -0.03270815626956
N          11.31105455157219    2.55020333860303   -0.01847164578781
C          12.68721722456493    2.63580529426753    0.00831206332771
C          13.43345548508263    3.77914564515758    0.02300963026219
C          14.81688675007041    3.50780230039969    0.05021603933626
C          15.09706673667816    2.17983595609790    0.05567342270036
S          13.67608433676375    1.21003899830880    0.02768126425762
H           6.69514620850676   -1.24131111794425   -0.09099449834253
H           4.21079876870902   -2.08018358843315   -0.13618230234691
H           8.51919739617336    4.00326045320277   -0.07200569383000
H          10.96664474643669    0.45480628502239   -0.02427231743555
H          12.99340063814069    4.75821607968605    0.01442438552099
H          15.57160325375173    4.27265575945465    0.06511487030254
H          16.05391203633044    1.69809075554489    0.07448140646158
