25
0 1
F           0.78104668721871   -0.11780345011802   -0.08113434174785
C           2.10681439620190   -0.00569280152533   -0.06093319973222
S           2.83756064668261    1.55373510570316   -0.06335950657395
C           4.41701686566010    0.79405159097350   -0.03134560942135
C           4.31561400354343   -0.58282929970276   -0.02044468094186
C           2.99413925613206   -1.04215582869971   -0.03724309178257
N           5.47905046141152    1.62340466039631   -0.01839167578599
N           6.64149295423945    1.07865354686430    0.00216111376093
C           7.68919195272711    1.94680276778205    0.01929359261195
C           7.73938749223484    3.37263286837718    0.01790565536062
N           8.97570809364289    3.79525650810911    0.04183825366761
C           9.02493655527530    1.56022436698871    0.04622681578958
N           9.75165115855808    2.69489168402804    0.05910042597901
C          11.12481547608680    2.81782988422843    0.08890672899247
C          11.91046713785133    3.93635314618039    0.10589077665712
C          13.24165584960045    3.45708554113291    0.13647848758344
C          13.16051411640393    2.09988563812980    0.13567060137603
O          11.87254213505850    1.69824755755486    0.10671423430910
H           5.18629325208190   -1.21210189377626   -0.00046314720491
H           2.69877520832661   -2.07511741027118   -0.03235136636658
H           6.91633017446311    4.05718233820553    0.00031030880885
H           9.47565882812833    0.59005792393637    0.05680082029956
H          11.56778201499804    4.94868535481146    0.09742701087405
H          14.13362088743024    4.04791130854243    0.15644273523861
H          13.90755439604278    1.33242889214871    0.15326905824834
