28
0 1
C           0.79758065176075   -0.14493082671104   -0.07854962027020
C           2.28059748390866   -0.03631994014708   -0.06172492692388
S           3.06227587479329    1.50064300280934   -0.06132323923615
C           4.63670339058228    0.74178723714785   -0.03689314492864
C           4.51689756519474   -0.63565742209412   -0.03017274099408
C           3.18912895185149   -1.06462578755095   -0.04416585331893
N           5.70743388318033    1.55765672321996   -0.02584061347129
N           6.86155289437225    0.99315786200357   -0.00762090310588
C           7.92629546490354    1.84385052111430    0.00654969128145
C           8.00736959121194    3.26485704094851    0.00365639029137
N           9.25614923370418    3.65911687929755    0.02447678474377
C           9.25270924007112    1.42560418111650    0.03093513619527
N          10.00716474418100    2.54049893867604    0.04109616263533
C          11.38237173759519    2.64569180085891    0.06719968091214
C          12.40002596057566    1.72222766571621    0.08892852594049
N          13.59048961425016    2.36934487737146    0.11145168494149
C          13.31844889503859    3.64370506458372    0.10394845868079
N          11.98376069456539    3.87302865297320    0.07709606816516
H          11.47392417802173    4.74224407741596    0.06558095042770
H           0.34256035134851    0.84136022791298   -0.09637131306609
H           0.44609592067021   -0.67820820439958    0.80478689509993
H           0.46752426949433   -0.70059345548986   -0.95626193206451
H           5.37842084520426   -1.27811255529633   -0.01528751048794
H           2.89515989439523   -2.09983509168650   -0.04146933628450
H           7.20250491812285    3.97087396286062   -0.01276682729903
H           9.67542341467068    0.44361760832888    0.04138605528129
H          12.34983750747205    0.65334170198003    0.08968002959113
H          14.05062282885966    4.42481525703985    0.11727544726384
