26
0 1
N           1.03175019424002   -0.19208254952861    0.00198596887692
C           2.17410570809697   -0.07586377187679    0.01482142790128
C           3.56425676154243    0.04422288509774    0.03082127434996
S           4.33348969694752    1.59635358172731    0.02642627617839
C           5.89972973711538    0.83486739137309    0.05387824338601
C           5.79557658310682   -0.54844202667517    0.06529238945907
C           4.47914367471375   -0.99213124080095    0.05232851741460
N           6.96415963141800    1.66176918825122    0.06472789619796
N           8.12481487430414    1.11063672051681    0.08279530532324
C           9.17466482515821    1.97195880097009    0.09886543421139
C           9.22762275425746    3.39872413619665    0.09564606707905
N          10.46414386742311    3.81782722840704    0.11891067173585
C          10.51115683396267    1.58265860268870    0.12620334296922
N          11.23827890630759    2.71532461085272    0.13776887114382
C          12.61143645890941    2.83968836297886    0.16803607435917
C          13.39471438673389    3.96017720413076    0.18321697670612
C          14.72664332875263    3.48361843396897    0.21572445853573
C          14.64800111843347    2.12597299013559    0.21774648111508
O          13.36123687534302    1.72162763282824    0.18873021759761
H           6.66437667451471   -1.18083222431479    0.08283548821080
H           4.18147426715460   -2.02598158077086    0.05816588099585
H           8.40568094319528    4.08464658632578    0.07694873088844
H          10.95969124918327    0.61138900954633    0.13821084386461
H          13.04987491823390    4.97184691250541    0.17238152799248
H          15.61736581397460    4.07628725129750    0.23504553292849
H          15.39685991697715    1.36029586416837    0.23753610057888
