26
0 1
N           1.08939097481736   -0.27194027046547   -0.06508886395736
C           2.22822983191492   -0.12338243086234   -0.06432554721476
C           3.61515115099307    0.03039316704404   -0.06057301122430
S           4.35391180925870    1.59716937669639   -0.06109769341388
C           5.93441384719017    0.86751994013087   -0.05577944848713
C           5.85732629190646   -0.51884261649064   -0.05399414422095
C           4.55057093957264   -0.98892634362692   -0.05665625360326
N           6.98028004652198    1.71606133347572   -0.05403998118030
N           8.14844929915019    1.18405403172476   -0.04876018547021
C           9.20199316919054    2.02968586018020   -0.04651401762679
N           9.17973719131060    3.40805630528730   -0.04960580865260
C          10.41177970233154    3.77968459598424   -0.04509102300068
C          10.51986182408239    1.59616239762821   -0.03992400717245
N          11.28945240273867    2.71735126994642   -0.03897027102364
C          12.66901667983722    2.78764196444608   -0.03285608608462
C          13.56456279643056    1.75594952949782   -0.02491631459342
C          14.90141617680862    2.20692957211629   -0.02030604590582
C          15.00390783561361    3.55936376950141   -0.02473503321562
S          13.46764128679844    4.33167176372729   -0.03474004600337
H           6.73874115101729   -1.13386636581292   -0.05091943347183
H           4.27272289049715   -2.02845373784682   -0.05588519649984
H          10.75026412939972    4.79745435596138   -0.04578755201342
H          10.91751050762862    0.60421746438270   -0.03610255462046
H          13.28842613957991    0.71797660186570   -0.02233424098194
H          15.74810175437424    1.54513081740988   -0.01392511181003
H          15.88943017103542    4.16241764809841   -0.02275212855132
