21
0 1
C           0.95478249565070   -0.02236528589905   -0.01481378451305
C           2.43722030500345    0.09164951905375   -0.01221637339093
S           3.21172597300072    1.62978004210350   -0.00666626140552
C           4.78994456810058    0.87702273542386   -0.00584171192964
C           4.67435537030393   -0.50331507196837   -0.00975139468034
C           3.34972078433800   -0.93619493404486   -0.01327280302801
N           5.84528666596595    1.70530442633861   -0.00095124165307
N           7.01362882861636    1.17514075184850   -0.00101243106862
C           8.05870499157451    2.04586018145865    0.00511261747076
N           7.99372511231051    3.41976391878093    0.01304678278407
C           9.21324363478704    3.84955139550020    0.01737197343594
C           9.38479998891567    1.64498458279286    0.00475646854647
N          10.07757484797475    2.80607640880223    0.01249806569118
F          11.44452296736591    2.89219974738634    0.01511194304527
H           0.49779436524294    0.96296538318238   -0.01721497831362
H           0.61388139244283   -0.56624507488114    0.86599022343291
H           0.61710729384621   -0.56933446628184   -0.89490309466090
H           5.53805946732840   -1.14297384829669   -0.00984435783121
H           3.05793545643323   -1.97196462380141   -0.01655301335836
H           9.52670267317859    4.87324747105335    0.02388872365588
H           9.84828281761970    0.68273674144821   -0.00025535222922
