22
0 1
C           0.91939548431448   -0.16021846271948    0.04514292855974
C           2.40179970239657   -0.05385558817325    0.04740874419463
S           3.18465567742681    1.47903913212232    0.05165056495741
C           4.75900526833096    0.71690027278532    0.05329150883790
C           4.63490115711306   -0.66423240257006    0.05033240752265
C           3.30846970881763   -1.08837436981751    0.04707929357295
N           5.81835175315305    1.53645037422144    0.05793683828282
N           6.98435555786562    0.99885365591962    0.05966327669179
C           8.03212869586127    1.86291388142962    0.06602087872858
N           7.97586986361474    3.24541293435625    0.07287436480713
C           9.18733279154545    3.66048209096656    0.07824008428731
C           9.35005209237336    1.45871675684604    0.06754505314014
N          10.09691425473959    2.61263457369293    0.07531892895348
C          11.41728135447205    2.70855941594555    0.07918782613868
N          12.55789245967334    2.80750219622513    0.08340482510958
H           0.46585376433111    0.82682010004597    0.04312126097786
H           0.57657580541531   -0.70324226830201    0.92584173420260
H           0.57930253690174   -0.70584105050771   -0.83496905556684
H           5.49521498112516   -1.30870715690923    0.05076589706542
H           3.00939159668527   -2.12212399996471    0.04463072012601
H           9.50222236775988    4.68533123061478    0.08433377469516
H           9.79173312608357    0.48456868379243    0.06371814471499
