19
0 1
N           1.03202624955150   -0.33229449844116    0.03284756669943
C           2.17322212439242   -0.20288329601113    0.04157398697404
C           3.56206723707578   -0.06591056537036    0.05233936945348
S           4.31375203645547    1.49422226493370    0.05014187225005
C           5.88867209053228    0.75078158030859    0.06720862498682
C           5.79928869336177   -0.63416982715959    0.07387283999385
C           4.48806551711538   -1.09309524982528    0.06548562568363
N           6.93867912684144    1.59568986257734    0.07174704041944
N           8.10675015978008    1.06816759172974    0.08483970811922
C           9.15552241659394    1.92653441918676    0.08984339591476
N           9.11394647175034    3.30124169362694    0.08235622985441
C          10.34332868387408    3.69200333043658    0.09174993002363
C          10.48030041166842    1.51062096813502    0.10425022533575
N          11.22126059889857    2.64407868913760    0.10531007307002
H          12.22746381486782    2.69603165342122    0.11447102506078
H           6.67451554188954   -1.25788147671095    0.08443628644840
H           4.20204752937330   -2.13036037285924    0.06866338506015
H          10.66302742666237    4.71528160354193    0.08944059282075
H          10.90119386931554    0.52746162934228    0.11323222183139
