24
0 1
C           0.81282426856092   -0.16365764335989   -0.06281927802517
C           2.29598715445537   -0.04822587398214   -0.04687627501454
S           3.06833632318891    1.49392675972377   -0.05562221489185
C           4.64831280151096    0.74609036006096   -0.02789506582835
C           4.53604972743833   -0.63200302662466   -0.01325149549026
C           3.21077420523704   -1.07052192333327   -0.02404655262534
N           5.70334177853739    1.58033254736811   -0.02454847692654
N           6.87062691920141    1.04705881924758   -0.00366310214132
C           7.92227081361599    1.90554894766301   -0.00014649759120
N           7.88646964664347    3.27892596212103   -0.01630198363518
C           9.12205781632469    3.66036761548552   -0.00462789317281
C           9.24511390932883    1.48858700265441    0.02177312815808
N           9.99878362292593    2.61491459938274    0.01866680319825
C          11.43141050229070    2.70250077089724    0.03668089834395
H           0.35633286136952    0.82182916277157   -0.08310636797797
H           0.46244006456368   -0.69487948943069    0.82210475958256
H           0.48337986729362   -0.72166458348993   -0.93922526095740
H           5.40098011910761   -1.26992225023454    0.00452067637024
H           2.92373843509196   -2.10781718446356   -0.01542356115060
H           9.44856844820549    4.68194650679390   -0.01205868218943
H           9.66443499462274    0.50453727516143    0.03844065909634
H          11.85610709506622    1.70056085138199    0.05101307231386
H          11.76808269147185    3.24418302883010    0.92321330049998
H          11.79121593394737    3.22868176537530   -0.85006058994530
