28
0 1
C           0.80181910206451   -0.13507546771449   -0.02115064092267
C           2.28507275468035   -0.02503050368027   -0.01668022999454
S           3.06385294489996    1.51244737226836   -0.01795641555081
C           4.64188635362705    0.75659221266846   -0.01010362218141
C           4.52193945273797   -0.62229595552513   -0.00709486118377
C           3.19520032067861   -1.05335261529666   -0.01082083883341
N           5.69766165191916    1.58552770621639   -0.00733852838268
N           6.86623084910376    1.05315840407471   -0.00012521117905
C           7.91193154093201    1.91807623968288    0.00376217621944
N           7.85419038970875    3.29648339407082   -0.00080677021017
C           9.07534854188912    3.70391873134565    0.00659110678327
C           9.23621346529535    1.51882647487192    0.01420984992156
N           9.97804440475329    2.66436227421369    0.01614618398353
C          11.35375166926976    2.76194637895702    0.02683658510760
C          12.17700696628631    3.85446872890932    0.03001845049940
C          13.49442615586470    3.33552383654587    0.04285660374602
C          13.37172869958332    1.98242878569009    0.04637775137840
O          12.07231071033724    1.62272146182411    0.03674472158185
H           0.34728515691052    0.85161722411501   -0.02697766130795
H           0.45765309868493   -0.67508029200013    0.86094879629606
H           0.46342646283127   -0.68296941337716   -0.90059071749839
H           5.38451269131870   -1.26380458073795   -0.00228825869703
H           2.90135443280758   -2.08878726871885   -0.00918105751918
H           9.38311878069147    4.72996618941993    0.00567823206603
H           9.67739135949277    0.54500136948888    0.02032112686592
H          11.88998143818417    4.88471642763948    0.02412080018228
H          14.40266244039562    3.90138814786001    0.04861446162611
H          14.09457816505184    1.19221473718796    0.05514796720357
