30
0 1
C          -0.78168499866768   -1.02398921160329   -0.16420241603122
C           0.41958238409570   -1.25443536930320   -0.67905175143597
S           1.51681599505998   -0.00427091185838   -1.27095983005095
C           0.71874166028764    1.36903212089066   -0.50496551026479
C          -0.51241760341677    1.34736141810099   -0.00742153540711
N          -1.35581578723909    0.23549530794815    0.00817147907804
C          -2.67799085864914    0.36658935107944    0.33824988243145
S          -3.66036435866752   -1.02406599508295    0.70233282279689
C          -5.06285521928727   -0.00177569911938    0.97848208864419
C          -4.73563191873892    1.32846765935651    0.78457330934123
C          -3.40980927851700    1.53826123861063    0.42103517322622
N          -6.19761200285272   -0.63208449922462    1.29445628366690
N          -7.23097113463648    0.10033341394787    1.53310428573597
C          -8.37898070078772   -0.55859032327341    1.82735519597842
N          -8.58495509609429   -1.91667991108497    1.88110837497365
C          -9.83147345098989   -2.06889215517503    2.19278156734097
C          -9.56927300532136    0.08993336009411    2.12337848963896
N         -10.48574769794712   -0.88306088327407    2.35473513703563
C         -11.86783776717853   -0.70773160763828    2.69912970623146
H          -1.39223080701182   -1.84546194195536    0.18039588471672
H           0.81898086755220   -2.24903008533493   -0.75910584425439
H           1.33464174197237    2.24885950831554   -0.44762658622318
H          -0.91082963795121    2.22788843256601    0.47276199024004
H          -5.46976357516672    2.10525823519892    0.89987531804647
H          -3.01223235051749    2.51263075930857    0.20115128565418
H         -10.32180588890393   -3.01511884101296    2.31599667743667
H          -9.79746728407962    1.13362851005588    2.17943217029556
H         -12.09288708293418    0.35518940139616    2.76427428811319
H         -12.08236728034892   -1.17618788519177    3.66214041491274
H         -12.50999786306230   -1.16100339673648    1.94067164813248
