28
0 1
C           0.74768442285523   -0.07811451388413    0.04731939195519
C           2.22913297204772    0.05249753790174    0.04949314783239
S           2.98790051788050    1.60064349434380    0.05107397449232
C           4.57478811466642    0.86631527009854    0.05412587098614
C           4.47358844945042   -0.51430260398902    0.05360066397819
C           3.15286099970596   -0.96353887726115    0.05096958839152
N           5.62493013207336    1.70381763474751    0.05653783655003
N           6.79244217968851    1.16929375809380    0.06054556488111
C           7.84738220773013    2.02053633829495    0.06302310754455
N           7.82181106583991    3.39956214040926    0.06014541483593
C           9.05390439398412    3.77440352222482    0.06447086387695
C           9.16265166093718    1.59051482706771    0.06926297934646
N           9.93372318094831    2.71620276352477    0.07028324426559
C          11.31179440074802    2.78702276199515    0.07623598881885
C          12.20957282850285    1.75769753609216    0.08386991988319
C          13.54662708736496    2.21023719837049    0.08845566436920
C          13.64805485898222    3.56219751475220    0.08431307561264
S          12.10900722467781    4.33242007404256    0.07461375799510
H           0.27860195972023    0.90178615885026    0.04328828394836
H           0.41282796477504   -0.62405633299702    0.92946468679778
H           0.41584633058031   -0.63008981318316   -0.83217098590815
H           5.34516594022166   -1.14362031442562    0.05507601697540
H           2.87323909817924   -2.00301020912986    0.05023115573683
H           9.39109714042709    4.79284110517458    0.06381343780520
H           9.56348151598369    0.59996779204736    0.07293117491535
H          11.93398061419574    0.71949957815109    0.08622774931953
H          14.39386906404100    1.54882862348949    0.09462550298884
H          14.53209367379236    4.16747703519770    0.08632292180549
