18
0 1
F           0.84132009764238   -0.25744201175848   -0.01925127301948
C           2.16471799951998   -0.12546007389574   -0.00457629411162
S           2.87666580340567    1.44040998144489   -0.01221996479805
C           4.46435438694412    0.69898245491949    0.01496417034165
C           4.37824460692405   -0.68149359835762    0.02820384622869
C           3.06334435423242   -1.15489332963503    0.01704721167958
N           5.51154553430082    1.54227075784157    0.01888000732698
N           6.68201334592873    1.02218315085632    0.03963114229206
C           7.72378280706078    1.89384907830065    0.04319022424367
N           7.65905994703545    3.26828730019824    0.02755574527630
C           8.87813159051098    3.69772505958894    0.03834736919833
C           9.05152056793077    1.49308206621241    0.06429515187811
N           9.74291066494008    2.65244805644254    0.06051786312421
F          11.10777001488711    2.73893380330180    0.07684838718106
H           5.25656792023949   -1.30034126565251    0.04530859742923
H           2.77614362032516   -2.19028092043763    0.02429565506394
H           9.19197366400743    4.72147258050573    0.03132578245787
H           9.51394307416460    0.52998691012445    0.08047637820749
