25
0 1
F           0.75062278947556   -0.19308413306369   -0.00052822483862
C           2.07402652638136   -0.04910711535701    0.00646122920805
S           2.77101832265062    1.52524088712887    0.00770342348987
C           4.36629058212809    0.80030686581601    0.01771171980086
C           4.29384417023055   -0.57964383838451    0.01950939794538
C           2.98325036265961   -1.06767461210055    0.01306917957938
N           5.40961888435631    1.65203468917296    0.02192517577128
N           6.57944234705292    1.12605736028663    0.03013289533557
C           7.63270529157159    1.97642558481050    0.03418356391487
N           7.61165731147202    3.35461785801655    0.03027424240014
C           8.84443028907845    3.72529159595555    0.03670628983884
C           8.94829808798989    1.54177055283542    0.04333370807824
N           9.72094005267151    2.66302553611111    0.04493983826967
C          11.10029493744381    2.73012516601397    0.05303475051838
C          11.99412888109347    1.69728058675767    0.06143192898664
C          13.33201763684835    2.14566981216457    0.06810129881285
C          13.43734583542865    3.49752191643286    0.06473372944108
S          11.90187500737446    4.27253309584336    0.05326671815972
H           5.17815588724730   -1.18988353797943    0.02530400179462
H           2.70968991129104   -2.10672069900222    0.01323509440797
H           9.18503353619298    4.74232706180928    0.03597772584273
H           9.34405637294054    0.54930363028848    0.04847917350327
H          11.71600982451724    0.65989384406024    0.06284768432247
H          14.17737539311151    1.48214811893457    0.07510969794500
H          14.32364175879211    4.09927977344880    0.06824575747175
