22
0 1
N           1.13368820116467   -0.19602238315311   -0.01467389749951
C           2.27461664884961   -0.06448445564655    0.00231108457866
C           3.66271051906705    0.07461071911607    0.01803061111338
S           4.41427111284373    1.63598533317852    0.00810553791148
C           5.98925466426172    0.89426441162500    0.03937263604429
C           5.90096786629842   -0.49046974365230    0.05581807107140
C           4.59005724030786   -0.95093611142834    0.04370827809044
N           7.03903436884164    1.73929801119061    0.04287683097563
N           8.20667702602705    1.20785426870723    0.06755894187802
C           9.25847209706911    2.05780042839017    0.07082808371448
N           9.23201194364138    3.43192767126276    0.05058661241543
C          10.46856928418424    3.80476130065050    0.06386343427621
C          10.58241819551657    1.63208847470878    0.09690503200420
N          11.33967967753122    2.75083576055766    0.09218846754307
C          12.77265955265030    2.83281016227917    0.11290405103326
H           6.77664394748061   -1.11334505552310    0.07587715587562
H           4.30524547499215   -1.98853968214607    0.05335199023464
H          10.80244188002584    4.82391190902852    0.05421644193714
H          10.99227574224687    0.64384730116434    0.11731869183480
H          13.19452126078008    1.82982497903587    0.13307666487138
H          13.10776326491242    3.37826325240419    0.99742237263305
H          13.13478003130749    3.35399344825005   -0.77557709253704
