26
0 1
N           1.06566830977360   -0.35221216188457   -0.00324503819231
C           2.20638316316311   -0.21989263175480    0.00030092782481
C           3.59546025559207   -0.08466064510333    0.00374177506534
S           4.35422683131003    1.47179573902638    0.00358395130925
C           5.92534759067831    0.72117439003176    0.00983232130503
C           5.82971715150692   -0.66419412367982    0.01162061449941
C           4.51694577716772   -1.11667588682176    0.00817142776437
N           6.98018676093224    1.55762553736267    0.01268616289370
N           8.14514747399418    1.01867038731951    0.01835534566240
C           9.20000555968936    1.86503603451823    0.02227733486624
N           9.17699613021868    3.24139565086533    0.02023640722932
C          10.40831578866620    3.61724123070839    0.02659302123247
C          10.51874710986146    1.43349162024964    0.03014227411529
N          11.28707697701088    2.55587306856184    0.03297686298482
C          12.66547117287359    2.64481100996552    0.04135609767843
C          13.50277689277966    3.73568236106686    0.04531476801265
N          14.79162810073224    3.32019562901508    0.05411504465418
C          14.75918514223126    2.02019436118665    0.05560908808454
N          13.48640294985485    1.54646545940763    0.04805883381601
H          13.19724695661251    0.58233692377157    0.04743054221107
H           6.70220591856929   -1.29176037885390    0.01540122378194
H           4.22537013810337   -2.15236721316619    0.00894315435747
H          10.74171001886313    4.63490351059033    0.02705965327937
H          10.90769042458379    0.43700865609295    0.03369384066993
H          13.25878986849978    4.77751616344911    0.04241216185704
H          15.61970753673177    1.38319530807493    0.06199220303724
