21
0 1
N           1.18964110458773   -0.50225340878129    0.02019021730406
C           2.32389506876208   -0.32519040739859    0.03016712624733
C           3.70563577195509   -0.12794722047041    0.04502142096998
S           4.38650768562079    1.46346461743801    0.05182416027003
C           5.99262713786664    0.78904045246965    0.06843266155040
C           5.96612374164856   -0.60008979480584    0.06832792426890
C           4.67667282725232   -1.11388582490153    0.05507199362089
N           7.00921646333942    1.66910157239350    0.07715955301991
N           8.19758832369050    1.16747846237355    0.09098919272646
C           9.21690299270125    2.04392516806229    0.09750056472424
C           9.32880535946994    3.42967515878165    0.09187512903335
C          10.69400848697908    3.74390611586940    0.10364938146182
C          11.39947931905788    2.56728443806306    0.11639472159821
N          10.51080632240467    1.52874163676246    0.11294733769742
C          10.81855594458727    0.23902266727178    0.12301012855981
N          11.10227970080961   -0.86910931686161    0.12739928105231
H           6.86867403726485   -1.18392220432220    0.07746131678418
H           4.43578684463480   -2.16231078498397    0.05252823694197
H           8.50109030391352    4.10963770850021    0.08052896479976
H          11.11899340509755    4.72811557413358    0.10296348367308
H          12.45706915835657    2.38835539040637    0.12763720369597
