29
0 1
C           0.93883433473834   -0.05171927210033   -0.09349201115387
C           2.42020520627553    0.08033009701000   -0.07886040921480
S           3.17555354133084    1.63164892267552   -0.07936516023415
C           4.76687898994023    0.90302814741840   -0.05727921000258
C           4.66856891418477   -0.47701188398156   -0.05060282462472
C           3.34779033314652   -0.92981354292865   -0.06277439561722
N           5.80191332733896    1.75693646460694   -0.04804358040676
N           6.99212223395632    1.25182096242481   -0.03245708350059
C           7.99670336172690    2.15101233626678   -0.01971955958145
C           7.99789725434156    3.54645507186354   -0.01669158240651
C           9.32738593244820    3.96446745953290    0.00228232332192
C          10.11320314110810    2.83490369350494    0.01039960857554
N           9.31949831648412    1.73215443518019   -0.00286271303508
C           9.78245726198955    0.43145915955023   -0.00010156776075
C           9.06891049353478   -0.73084950869430   -0.01882074000601
C           9.89570629964489   -1.87454094651965   -0.00850610926951
C          11.21779152025871   -1.57559272029491    0.01749716251438
S          11.49806171998010    0.12211023358501    0.03053151809906
H           0.46999888756046    0.92815282268586   -0.10894407998096
H           0.59617888474951   -0.59096159549431    0.78973002244320
H           0.61501775012861   -0.61010151850889   -0.97185642304443
H           5.53359054565315   -1.11478048571295   -0.03673284924049
H           3.07362093572557   -1.97070323249289   -0.05979508833542
H           7.11530700705217    4.15327222582755   -0.02712961325316
H           9.68222641768461    4.97608913130991    0.00943871538623
H          11.18217406290083    2.74454324289576    0.02469218830634
H           7.99638878103980   -0.74335013871297   -0.03909300419440
H           9.51551479482685   -2.88019253692011   -0.02025025388238
H          12.05758975025001   -2.24077702397681    0.02995672009859
