20
0 1
N           1.16440799837220   -0.39978820744467    0.02051655506977
C           2.30158271424183   -0.24096280240180    0.03489829641322
C           3.68455780837596   -0.05691525844989    0.05162458906627
S           4.37667971351286    1.53123686576956    0.05251920515486
C           5.97850134863506    0.84730668714038    0.07456107370591
C           5.94280636108561   -0.54058376313106    0.08100845351471
C           4.64979981916561   -1.04738053482165    0.06811857223676
N           6.99573564258005    1.72724174223650    0.08269317994498
N           8.18612639097887    1.23196681903403    0.09635922873225
C           9.19904389520418    2.11492918994728    0.10457648526717
C           9.30534065418483    3.51214795887079    0.10037716225814
C          10.65826674456656    3.83430708301058    0.11447745157088
C          11.37748817153871    2.65225316622217    0.12715344622446
N          10.48616667714744    1.65188369715032    0.12061228090173
F          10.83317215818057    0.33476668637821    0.13015771748142
H           6.84012379259577   -1.13186889483212    0.09452638090990
H           4.40340272204310   -2.09461415316933    0.07036028862169
H           8.46971279997372    4.18187841806593    0.08805536553963
H          11.08159354140814    4.81876286059181    0.11547042550075
H          12.43296104620901    2.46982243983290    0.14000384188551
