30
0 1
C          -0.63358991383717    1.38284902012176   -0.15209122930416
C           0.68553117341882    1.43060064712301   -0.29759155090557
S           1.77661617199018    0.06975400429601   -0.03577602837024
C           0.55160171091563   -1.20186445967462   -0.04942834196611
C          -0.75397880178929   -0.99651562742540    0.07034643286909
N          -1.36522954015187    0.24976212911464    0.20564591435088
C          -2.69234802787868    0.35111773090246    0.52860345662224
S          -3.71490494094373   -1.05815349427247    0.59613988637066
C          -5.10136705118385   -0.07281191300358    1.03852328727700
C          -4.73964728438404    1.25998707815210    1.11675185804784
C          -3.39639561517262    1.49872508696778    0.84028814954048
N          -6.24002429662135   -0.73520857724463    1.25811553054129
N          -7.29355920710929   -0.03108705002281    1.53520366223455
C          -8.42633956234378   -0.71337798108601    1.78654587038132
C          -8.80005067472431   -2.06057318955931    1.85918942088889
C         -10.15413416280979   -2.09109105870830    2.16637799587953
C         -10.59155092527647   -0.78126723184508    2.28760720947201
N          -9.54900063864777    0.03422332752728    2.05637091069210
N          -9.55225587071360    1.42318155332006    2.13319160995325
H          -1.22718328203253    2.25920772471660   -0.36164136675290
H           1.18514134548303    2.32770937235419   -0.61613367075211
H           0.95856901384845   -2.18844985337159   -0.17729460146755
H          -1.43873266440088   -1.83142888373721    0.04959453433967
H          -5.44649366010538    2.02308409799268    1.38839950059483
H          -2.95522051735666    2.47745951244659    0.89697735235408
H          -8.13961220972710   -2.88958822328658    1.70549642573081
H         -10.76333100895786   -2.96436990753793    2.29288252145761
H         -11.56506261226629   -0.39276726451722    2.51194265365976
H         -10.11098507599393    1.82445628750367    1.38096672611586
H          -8.58026187122698    1.71082714275404    2.01670588014471
