28
0 1
C          -0.75797157832789   -0.99686039620044   -0.15742654840696
C           0.45067904754323   -1.20232101762928   -0.66625832959233
S           1.53174195773075    0.06629177034626   -1.24282753712748
C           0.68861708143881    1.42808910579327   -0.50767125961317
C          -0.54340381003339    1.38252408169036   -0.01363302167103
N          -1.35902275400175    0.24982568420481    0.01916327849467
C          -2.68202264739742    0.35018261222820    0.34896445031465
S          -3.63861793096697   -1.06870138180920    0.67383881871226
C          -5.05999366356729   -0.08087519766156    0.97565746592718
C          -4.75895338962997    1.26191101603736    0.81705592904631
C          -3.43869257805619    1.50521375168686    0.46211581876113
N          -6.18256170643132   -0.73135411768661    1.28533907416446
N          -7.22680246073456   -0.00528632736172    1.53436333937676
C          -8.35692963217891   -0.67795031069145    1.82864904052695
C          -8.72560686678607   -2.02350558214700    1.91598125464729
C         -10.07526267816244   -2.07529327752747    2.26367907580291
C         -10.53180659618864   -0.77931076073932    2.38942909544172
N          -9.48915367199027    0.02723071099288    2.12320430303534
F          -9.57042348309397    1.39091264258081    2.15649671531969
H          -1.35413715580103   -1.83276551965524    0.17756380076563
H           0.86533765624905   -2.19045004401538   -0.75115487038174
H           1.27674002282393    2.32761285952225   -0.46858568149775
H          -0.96676923507551    2.26245222379624    0.44540079517341
H          -5.50816286620484    2.02044137483433    0.95381558921495
H          -3.06103324396515    2.49341916363553    0.27172225762569
H          -8.06199636755682   -2.84511619941379    1.73828085879610
H         -10.66415854267260   -2.95915103089218    2.40972051010923
H         -11.49627290696286   -0.38815583391871    2.64164577703452
