27
0 1
N           1.21223032736647   -0.60492138542650   -0.12423746474530
C           2.33963961653265   -0.38556255662312   -0.10362520003233
C           3.71026158071446   -0.13195235801232   -0.08132807779473
S           4.32626444310411    1.48941924737506   -0.03484774015659
C           5.95808749328287    0.88394192210346   -0.03560516409264
C           5.98956821821098   -0.50297954710597   -0.06947600352503
C           4.72327419268184   -1.07252666561770   -0.09543184811459
N           6.94570875684785    1.80045938593740   -0.01443819117578
N           8.14489994711686    1.32013877851721   -0.01406796914556
C           9.15144785453853    2.20329338966408   -0.00985226924924
C           9.20548271509541    3.60099005911878   -0.01716419609736
C          10.54819635350132    3.96515285197501   -0.02189336427675
C          11.29394303547674    2.80500357404562   -0.01667863446233
N          10.45892481289540    1.73571454954510   -0.00910912433482
C          10.86867133798503    0.41472691333275    0.00006785352525
C          12.13365128732602   -0.11461416199386   -0.00650646429390
C          11.95949723781458   -1.51807754866253    0.01044870192735
C          10.61666670570110   -1.73136840501006    0.02583327823558
O           9.94956675873253   -0.56259138634253    0.01963486883544
H           6.91869218777880   -1.04274167640581   -0.07496053614658
H           4.52794321795898   -2.13021371404920   -0.12419969419493
H           8.34751277818955    4.24221700863732   -0.01958656660636
H          10.94292068772422    4.96184711179577   -0.02876952732251
H          12.35806159976030    2.68223639750633   -0.01810817131742
H          13.06358880963687    0.41357048286644   -0.02175690488834
H          12.73278860400927   -2.25784514153325    0.01103700332100
H          10.03201944001726   -2.62891712563752    0.04161140612828
