29
0 1
C          -0.57211120713055    1.36497146058641   -0.11935304598315
C           0.74947347973995    1.39416664880701   -0.25015455968372
S           1.81780401062622    0.01137699522973   -0.03450585449859
C           0.57519796085781   -1.23782517846330   -0.06929026062679
C          -0.72902030740474   -1.01756527740406    0.04477493483741
N          -1.32807209494294    0.23370905778729    0.19412422847211
C          -2.65160982867462    0.34174161827405    0.51252618617986
S          -3.65904240617146   -1.07149496110299    0.65698845199706
C          -5.05318945116902   -0.07714500670121    1.05074271407422
C          -4.70407882201484    1.26529605037456    1.06232040942752
C          -3.36909859297295    1.50107511615925    0.76965585126445
N          -6.19584062927147   -0.71959804040453    1.28192863879851
N          -7.23174581094530    0.01439445420845    1.55262854327335
C          -8.37772653533140   -0.64978476427394    1.79579945785850
C          -8.75783770355395   -1.98163870676021    1.86255357508980
C         -10.12795186173200   -2.01827953638067    2.17049459189615
C         -10.57186758643731   -0.72964895968260    2.28834592728162
N          -9.51243385517650    0.11335665807179    2.06306468926329
C          -9.55333264568485    1.43482088762868    2.08975573344202
N          -9.61409197756787    2.57790623950420    2.11792353188271
H          -1.14467790643555    2.26077110213995   -0.29975806130219
H           1.26461312365547    2.29676064694580   -0.52685219366476
H           0.96694080225788   -2.22956188238882   -0.20601251863968
H          -1.42270845281912   -1.84440492644928    0.00703882907773
H          -5.42822233418776    2.02672936580800    1.28992025724337
H          -2.94094934422773    2.48682149765780    0.76862409478108
H          -8.10340946804711   -2.81473085461137    1.70509795399309
H         -10.72626608451590   -2.89983338041876    2.29283585131227
H         -11.54600447072503   -0.34068632413685    2.51159204295211
