27
0 1
N           1.12615999809865   -0.23954020276705   -0.13510414493261
C           2.26577041339692   -0.09704028043906   -0.12019781987062
C           3.65173077110541    0.05628054899056   -0.10083766576611
S           4.38589698375314    1.62670884669528   -0.10061003916770
C           5.97293358228077    0.90426332582744   -0.07130854273471
C           5.89763222592036   -0.48223003816490   -0.06275750569000
C           4.59208931616189   -0.95657260285702   -0.07939026447476
N           7.00145852361900    1.76868609427949   -0.05856431465107
N           8.19452495012846    1.26798348480701   -0.03985513221071
C           9.19647262055762    2.16061143827924   -0.02297303264223
C           9.19817851956327    3.56083351992407   -0.01880299166730
C          10.52404007753688    3.97646735375161    0.00448540446457
C          11.31077462759109    2.84278667438069    0.01415160270505
N          10.52115723098742    1.74190933939966   -0.00235815305949
C          10.98511350305852    0.43983553845868    0.00121840855374
C          10.27097900820132   -0.72256796346270   -0.02175697766605
C          11.09751475026284   -1.86577567072555   -0.00876883644523
C          12.41958612020368   -1.56546906726199    0.02338745138686
S          12.70010509659793    0.13061490207725    0.03919809375672
H           6.77251960112449   -1.10588891213192   -0.04431963133497
H           4.32047353481323   -1.99771697228551   -0.07629229085710
H           8.31455242318864    4.16622130824660   -0.03159579101796
H          10.88190106240435    4.98680397027803    0.01350742816151
H          12.38010443216091    2.75596914861763    0.03168023823296
H           9.19888335880626   -0.73745156338848   -0.04700333673513
H          10.71789835241057   -2.87135613007506   -0.02305515433502
H          13.25894891606653   -2.23119609045401    0.03893299799738
