29
0 1
C           1.00841114148713   -0.13514565416168   -0.07098059746473
C           2.48767661650460    0.01368079053902   -0.05616174629195
S           3.22459881533446    1.57268853613668   -0.02936123362566
C           4.82450675551525    0.86279390777714   -0.02536541431801
C           4.74234496385675   -0.51952202054156   -0.04397602392715
C           3.42687784098635   -0.98628611832024   -0.06135660451043
N           5.84539095710042    1.73157125115475   -0.01182971842919
N           7.04743221054028    1.25414213049112   -0.00346120694951
C           8.04337109339387    2.16593863553090    0.00126222489186
C           8.04462627445427    3.56310492197687   -0.00288046177442
C           9.37387830678130    3.97492364465208    0.00162648519334
C          10.16132956717409    2.84153006592440    0.00826227803837
N           9.36393999644836    1.74664242167784    0.00827370352258
C           9.79921686662061    0.43392083620912    0.01367256471382
C          11.05363536361464   -0.13153107092279    0.01212806415335
N          10.93674785583007   -1.48166228691167    0.02037524768916
C           9.65758060665100   -1.73861111126614    0.02670740364053
N           8.91568452745265   -0.60747196667642    0.02327997677557
H           7.91228139919474   -0.42521410162825    0.02256746405408
H           0.52770671904024    0.83915149644987   -0.07233837239063
H           0.67297321715873   -0.69079477309248    0.80479146431027
H           0.69041957306265   -0.68512947324406   -0.95669281693706
H           5.60963985081167   -1.15553838968931   -0.04653507267473
H           3.16515903571970   -2.03006902761985   -0.07779931294740
H           7.16418078090878    4.17296088412755   -0.00845626885572
H           9.73129848906111    4.98557392789433    0.00010112278133
H          11.22872509221283    2.74782748516239    0.01301269809889
H          12.01545743807678    0.33806774148903    0.00521213740334
H           9.23319864500647   -2.72189268311855    0.03420201583017
