26
0 1
F           0.95206518548523   -0.21463741322757   -0.11755215819991
C           2.27590765551970   -0.07004720540106   -0.09968585800023
S           2.97199095770167    1.50606639096396   -0.10170856261974
C           4.57124707753772    0.78463896971541   -0.07330230556058
C           4.49856370324125   -0.59495589634634   -0.06372359872421
C           3.18725750107015   -1.08439230933422   -0.07878630147157
N           5.59840588697255    1.65168604641242   -0.06316631597846
N           6.79202901246907    1.15644443344605   -0.04476100502002
C           7.79251231849944    2.05559391216435   -0.03150567915455
C           7.79119685145179    3.45343192753130   -0.03038814200802
C           9.11791620884792    3.87294534017794   -0.00984447276399
C           9.90647751833320    2.74275713406521    0.00109415729505
N           9.11720314000947    1.63949015705758   -0.01193708363827
C           9.58332657389402    0.33878115646908   -0.00674774629395
C           8.87173656722302   -0.82497275582727   -0.02705844834759
C           9.70051898513374   -1.96685272776700   -0.01329080784174
C          11.02198972957750   -1.66465666452504    0.01682177034095
S          11.29914351774536    0.03271380382808    0.02965368392099
H           5.37508058573721   -1.21564832089918   -0.04569565559360
H           2.91634685151290   -2.12412149772479   -0.07461978390567
H           6.90671864334962    4.05744417701951   -0.04312922021913
H           9.47246522568506    4.88453825739483   -0.00350408746911
H          10.97580160827791    2.65648447765095    0.01723323524815
H           7.79951197320296   -0.84051966293854   -0.05097204569026
H           9.32247933662313   -2.97314549910967   -0.02560096201412
H          11.86283738489843   -2.32848623079599    0.03238739370959
