23
0 1
C           1.00153141534848   -0.19931112343615   -0.02158659806430
C           2.47725676119246   -0.02262552896158   -0.00462559095660
S           3.18491010505512    1.54836857434879    0.00614508506271
C           4.79443422528580    0.86353404405410    0.02194560320479
C           4.73923290054078   -0.52102008838972    0.01922713072048
C           3.43393216139231   -1.00919114738959    0.00418263729371
N           5.81720095216632    1.73023507322837    0.03133160901658
N           7.00524171125692    1.22539996049252    0.04125403918735
C           8.02284417304397    2.11062975791621    0.04675110867127
C           8.12790072810325    3.49347292734574    0.04176886221460
C           9.49421422393516    3.81586287836227    0.04912036876383
C          10.20545247771158    2.64597288136409    0.05851859759619
N           9.31861568988974    1.60121119685785    0.05692802014892
C           9.63513518131461    0.31565944409413    0.06326212257597
N           9.93302464577673   -0.78946198655228    0.07358434491291
H           0.50142769352055    0.76506439797109   -0.03322249004737
H           0.67540855438377   -0.75391261998440    0.85830268662801
H           0.69714880538752   -0.76430503787462   -0.90258743277694
H           5.63029651877208   -1.12237332116531    0.02766095327588
H           3.18695978987498   -2.05649790754388   -0.00059996693691
H           7.29771190509960    4.17031960684554    0.03336869023379
H           9.91251257195039    4.80317392648214    0.04730995503846
H          11.26333680899783    2.46955409193471    0.06572026423664
