29
0 1
C           0.98771176146778   -0.13342545243858   -0.06936756496033
C           2.46574755348458    0.03376173678540   -0.05364697932102
S           3.18144431514643    1.60413939605882   -0.06000915468869
C           4.78880124761528    0.91399827228485   -0.03337258844973
C           4.72760488458099   -0.46742200975811   -0.02054724813125
C           3.41820849641089   -0.95303814329454   -0.03190941216273
N           5.81128506639933    1.78468513616428   -0.02880562600961
N           7.00280925139891    1.28692268066782   -0.01004685141922
C           8.00437823010518    2.18839908888232   -0.00352786772387
C           8.02205596985902    3.58249032376987   -0.00520682389593
C           9.35785364893026    3.98405192975513    0.00953900831758
C          10.13185808765906    2.84725814036232    0.01961353907226
N           9.32069683877427    1.75385264934993    0.01199712381165
C           9.76980107838453    0.44696126250483    0.01888528914275
C          11.05037735933337   -0.04226444711108    0.05830186617985
C          10.92085817512064   -1.45084564376744    0.04468214622110
C           9.58646301731481   -1.70623463074768   -0.00256455673206
O           8.88304070428146   -0.55849946863553   -0.01822463467891
H           0.49603428105683    0.83496044562099   -0.09891864833578
H           0.65523758106173   -0.66801441731145    0.82060745982333
H           0.67860345297343   -0.71085192706247   -0.94067645016474
H           5.61727608268010   -1.07020979733139   -0.00368720925958
H           3.16793473320378   -1.99999729318792   -0.02480521054399
H           7.14739826515468    4.20062602975833   -0.01555284616745
H           9.72364449558145    4.99195291785614    0.01232384621801
H          11.19832487063229    2.74883362421663    0.03041002115013
H          11.96261857285054    0.51499520255806    0.09371673927552
H          11.71718640359774   -2.16576995740728    0.06664357508861
H           9.03002557493991   -2.62117564854203   -0.02778094165602
