22
0 1
F           0.89301296881356   -0.28256428753849   -0.11644996168147
C           2.21300409467131   -0.09388811097095   -0.09849915838151
S           2.85687890499370    1.50538204618818   -0.09773943698407
C           4.47728292422825    0.83621688070602   -0.07132974976944
C           4.45180032160883   -0.54394041104632   -0.06435297053697
C           3.15673584698708   -1.07692562789864   -0.07987416669492
N           5.48413853248446    1.72933291835637   -0.06155388893257
N           6.68435420223629    1.25060693548902   -0.04652403116465
C           7.68310001027039    2.15053254943943   -0.03677460510925
C           7.73493152674921    3.55134879123020   -0.03708031021755
C           9.07668705565880    3.90817787137857   -0.02366052753487
C           9.81465733135618    2.73629528997501   -0.01555360547513
N           8.97707523781457    1.68493776134958   -0.02323958747247
C           9.33965346748797    0.29672265814382   -0.01995949189313
H           5.35389269206495   -1.12679593076341   -0.04824339017869
H           2.91880942366224   -2.12474287963147   -0.07781252665547
H           6.87955084483233    4.19584854109549   -0.04585442583028
H           9.47820808196411    4.90228380684532   -0.02006774407951
H          10.87969949253990    2.60334162919692   -0.00473250648463
H          10.42405765574706    0.20561591173638   -0.00140819917704
H           8.94818751675427   -0.19526842265926   -0.91180740568897
H           8.91743186707452   -0.19851792062178    0.85580768994261
