24
0 1
C           1.03775715867584   -0.29609946933360   -0.14982473242314
C           2.51106457212656   -0.09748157298775   -0.09469616674563
S           3.19990475817790    1.48435373617948   -0.16874845740568
C           4.81700005217195    0.82965278369644   -0.04881524387514
C           4.77845098299564   -0.54907857491646    0.04221111100571
C           3.47871488237875   -1.06133742924328    0.01628797365882
N           5.82449279525968    1.72098889026063   -0.04561961940406
N           7.02295020150323    1.24294093885332    0.02230366587444
C           8.03695623051950    2.12664731262241    0.03923546047074
C           8.16656937235591    3.52099348801217    0.00650482043306
C           9.52460298239561    3.80366004365173    0.04328856087807
C          10.20766343409067    2.59745045630092    0.10820476664764
N           9.30808711722541    1.60183841353590    0.10258579331764
N           9.57557980665256    0.24306132203428    0.21615523681799
H           0.52784234608414    0.66008037809679   -0.22686484315476
H           0.68913170427211   -0.80856114386829    0.74691043012001
H           0.76731521396669   -0.90814627942941   -1.01047095457922
H           5.67038158463369   -1.14301469610689    0.12847329477751
H           3.25019299206706   -2.11136923273732    0.07797355526116
H           7.34877277038389    4.21133424569388   -0.03575493471325
H           9.97902988470482    4.77454729993658    0.02802899832626
H          11.26061347250688    2.39959156542521    0.14796505212732
H          10.07310157928218   -0.09882170902282   -0.60528401195989
H           8.66704410556960   -0.21804076665365    0.27663024454442
