22
0 1
N           1.26233406695790   -0.49966169197447   -0.22150171447620
C           2.39161251295859   -0.29459376674134   -0.17198488560744
C           3.76485614072309   -0.06361390247967   -0.10825445645818
S           4.41883443352523    1.54006930258654   -0.22087817014946
C           6.03510546962209    0.90981143815687   -0.06418389213663
C           6.03081288155005   -0.47180471158251    0.07127085958481
C           4.75309582458207   -1.01665585440818    0.04660385320580
N           7.02941358477073    1.81686805227217   -0.06053224341512
N           8.23379380549864    1.34706395143857   -0.01324953134898
C           9.24121768799745    2.22679394314701    0.02547023389015
C           9.36901912646677    3.62662851541392    0.02541407349079
C          10.72285590064067    3.90932317531482    0.05652210388037
C          11.41043126300826    2.69925043712346    0.08714786286619
N          10.51716518194883    1.70350927483049    0.06485822295508
N          10.78363233973468    0.34662023207160    0.15404831792423
H           6.93639562766486   -1.03841554988276    0.18996843723902
H           4.53532025946562   -2.06663765368813    0.13569596835031
H           8.54900675084828    4.31512312202756    0.00482363530740
H          11.17774876666058    4.87984782076074    0.05962840462158
H          12.46481445283630    2.50682329643473    0.11409883798366
H          11.36655144176784    0.03207658759875   -0.61911622016250
H           9.88179248077162   -0.12904601842051    0.13049030245508
