31
0 1
C          -0.61629982996058    1.36397206387513   -0.14331247055110
C           0.70466176993527    1.40727618724339   -0.27329154107813
S           1.78698040181973    0.04006076571902   -0.00626670457793
C           0.55647783820565   -1.22608729932468   -0.05076987977377
C          -0.74936364364811   -1.01576577356384    0.05795077042166
N          -1.35587013005447    0.23185835186456    0.20101118299411
C          -2.68457474888075    0.33580473595159    0.51884963078442
S          -3.69868724052226   -1.07755844998951    0.62395405262471
C          -5.09001777339130   -0.08959990182640    1.04273188115295
C          -4.73681751824048    1.24651049663472    1.08642027186647
C          -3.39536817311936    1.48662784765241    0.80196438095250
N          -6.23218249533230   -0.74601149539015    1.26948234973603
N          -7.27480191785256   -0.02653488446952    1.54825912839168
C          -8.41386952558748   -0.70247335264902    1.79372893421307
C          -8.75984592239240   -2.05714591838252    1.84650632935403
C         -10.11435794740814   -2.11954615522871    2.15797016530680
C         -10.56815203986444   -0.82056332204881    2.28835502228792
N          -9.54447108659419    0.02809229910136    2.07070816596865
C          -9.59068238824529    1.46145192388433    2.10596274586033
H          -1.20333237128893    2.24403622144696   -0.35580344457262
H           1.21105005131177    2.30426446383129   -0.58132382888505
H           0.95983788674008   -2.21259773570666   -0.18989034130123
H          -1.43819902038285   -1.84675288408873    0.01688629580333
H          -5.45348136890193    2.00863366415644    1.33355291643456
H          -2.96186616449757    2.47004168913591    0.82996424840884
H          -8.08532602774427   -2.87185173328039    1.67635324843828
H         -10.70604236523934   -3.00617907037520    2.27719734393597
H         -11.55206102739688   -0.46057499235861    2.52170087333750
H         -10.59419110874654    1.78629357303552    2.37469569524440
H          -9.32495975129911    1.87051638738882    1.12942080555482
H          -8.87589636142120    1.83992229776175    2.83848177166666
