25
0 1
F           1.04388191117605   -0.40566978630320    0.05451160555477
C           2.35833923233198   -0.20719787502695    0.06853341150117
S           2.98622083035928    1.39433651464948    0.07175452167393
C           4.61263804992801    0.73718581528317    0.09056848301464
C           4.60083332732128   -0.64638036185872    0.09375932643615
C           3.31173920665728   -1.18609111061307    0.08120371678454
N           5.60432109331992    1.64085671879829    0.09860458365213
N           6.81441437312654    1.21139975351628    0.10988469426576
C           7.78833953326950    2.13933088529906    0.11682154499358
C           7.85531927422204    3.53728705550174    0.11554342160748
C           9.21495250454312    3.81909112204081    0.12546184057692
N           9.94521170407073    2.70871281327447    0.13230705206058
N           9.08950844306107    1.70094007857691    0.12720958621862
C           9.49290712918152    0.38712495975453    0.13191012759745
C          10.77765924417738   -0.07803916686421    0.13905215111317
C          10.82776282092122   -1.48667863185556    0.14276416075532
C           9.59502147453297   -2.05429796355117    0.13880541244811
S           8.32336772997329   -0.88607733486844    0.12945017372070
H           5.50852784592716   -1.22135712147659    0.10503700539929
H           3.08113713207788   -2.23538964067607    0.08118219959525
H           7.02688525942458    4.21350601692950    0.10852943724164
H           9.70286771503662    4.77350344841705    0.12798668557639
H          11.63127704781949    0.57307235729481    0.14128462904291
H          11.74573939808848   -2.04579188115499    0.14820866480793
H           9.34905771945241   -3.09717666508724    0.14029556436152
