23
0 1
C           0.99911971069012   -0.18505921399107   -0.16407469412448
C           2.47294114091565    0.00262411621230   -0.10423606951462
S           3.17300038221395    1.57846736421239   -0.13121290358726
C           4.78455405306646    0.90640392221954   -0.03737538583141
C           4.73545000729756   -0.47539985474905    0.01403590326514
C           3.43285677435370   -0.97455237703570   -0.02222862553821
N           5.80213828776105    1.78360884347005   -0.00545395281241
N           6.99413096780364    1.29299249427499    0.01744974875461
C           8.00862724576871    2.18257105145743    0.04919150020142
C           8.16073056228208    3.57880214051332   -0.01869697351618
C           9.52672166878079    3.78068509298856   -0.00999752868651
N          10.19234736873517    2.62017479052217    0.06011700351808
N           9.27826220517756    1.68696199411138    0.09674260044982
N           9.60196601086811    0.36017226151877    0.25557408690338
H           0.49476335871367    0.77430162399754   -0.23793670767439
H           0.64524257455535   -0.69947565432363    0.72949395605937
H           0.72793949829950   -0.79248206407878   -1.02757126903180
H           5.62456148948203   -1.07538986329244    0.08509528485135
H           3.19362722348775   -2.02330858132995    0.01002997172144
H           7.37319430920046    4.30017265661498   -0.07370575088492
H          10.07595527967535    4.69956498628386   -0.05487155360306
H          10.49528002750144    0.16210772612648   -0.18456031934297
H           8.84304985336980   -0.20926345572326   -0.10956832157627
