29
0 1
C          -0.58755511072680    1.36347598922696   -0.14389043040170
C           0.73354026465328    1.38827848038498   -0.27893577720119
S           1.80000028318805    0.00734618483955   -0.03271185113652
C           0.55432121066213   -1.24140662300366   -0.04339502005847
C          -0.74884025601276   -1.01571190698142    0.06780529345418
N          -1.34404385693874    0.24002453323765    0.19504408906057
C          -2.66911384798959    0.35843189959005    0.50979925002206
S          -3.69648864031875   -1.04354859927423    0.61945434741529
C          -5.08030227265149   -0.03966994925932    1.02709722571829
C          -4.71325786523203    1.29541583287704    1.06553129177768
C          -3.37068874769800    1.51984273854251    0.78699974121984
N          -6.21819354477701   -0.68749131626890    1.27701583685849
N          -7.27376980980163    0.02208172495613    1.52078629316458
C          -8.39907791448231   -0.67434309919432    1.79116131484360
C          -8.79273467811807   -2.02264566172725    1.83098330631722
C         -10.14417362442427   -1.98164059341892    2.11669712308105
N         -10.57935700103703   -0.72303231136788    2.25061544022257
N          -9.53056176632718    0.03647051749560    2.05752268861315
N          -9.58546420493160    1.40563120734516    2.19939888437001
H          -1.16127605093728    2.25480151747994   -0.34420890592660
H           1.25039836588961    2.28252947476867   -0.57828470075504
H           0.94481283626523   -2.23587466954618   -0.16208330496854
H          -1.44493881322361   -1.84109146213238    0.04699625958598
H          -5.41963170499229    2.06643707063457    1.31502261624302
H          -2.92668529060712    2.49835451539828    0.81584382645837
H          -8.16528393609105   -2.87292795855052    1.66649103528330
H         -10.83558077092209   -2.79258572311889    2.22949055010782
H         -10.46751151166072    1.76125257532671    1.84331597938851
H          -8.78063174075671    1.80464561173913    1.72210759724205
