24
0 1
C           0.83929429255339   -0.25228677631367   -0.00853900703164
C           2.31758179541230   -0.09479555996218    0.00832566846956
S           3.04466244866364    1.46853101450203    0.01541475569280
C           4.64636074184946    0.76588810978570    0.03326303123160
C           4.57401448624466   -0.61642259124952    0.03380800121797
C           3.26225781792175   -1.09098735242378    0.01971931946701
N           5.67600618905877    1.62701996831802    0.04120774859990
N           6.86394927165251    1.12802268934890    0.05262002963361
C           7.87182343148149    2.03249798821629    0.05723694864872
C           7.95322226594167    3.43176536191935    0.05234294974385
C           9.31495871750773    3.69685881548889    0.06035411557454
N          10.02503343540396    2.57171435307754    0.06905241619395
N           9.15681336240558    1.57997581263973    0.06749770227095
C           9.58639118146116    0.21325713315022    0.07460276599631
H           0.35268263978101    0.71899566835082   -0.02193390473114
H           0.50501757949322   -0.80032458617949    0.87245470340480
H           0.52681927801571   -0.81405725744818   -0.88883453398385
H           5.45611326726373   -1.23070462266341    0.04387015475335
H           3.00404316056935   -2.13580664529622    0.01749682912926
H           7.13288936677051    4.11829257862153    0.04445540742814
H           9.81618385082590    4.64454112684943    0.05980506505274
H          10.67402838880494    0.20822017903033    0.09082826722134
H           9.22474917498094   -0.30064814038165   -0.81711143849646
H           9.19765385593653   -0.29943726738070    0.95541300451269
