34
0 1
C          -0.82137026660573   -0.96653564256707   -0.17685302547322
C           0.38545620195549   -1.16961826823874   -0.69101133541035
S           1.46992209448170    0.10285206709972   -1.25040924917040
C           0.63891737909038    1.45508787856105   -0.48684797615482
C          -0.59370554773121    1.40902210185042    0.00615194427216
N          -1.41672001264652    0.28105736294264    0.01509510875915
C          -2.73801798194071    0.38330322376736    0.34576656015939
S          -3.69191605977874   -1.03092155500244    0.69215888070200
C          -5.11270453267117   -0.03914022387713    0.98527957411944
C          -4.81302838012728    1.30284774654631    0.80803306067749
C          -3.49479905960719    1.54119588849110    0.44650463703238
N          -6.23037501376179   -0.68760774597934    1.30645619290640
N          -7.28132627705132    0.03182340383184    1.54624539169119
C          -8.39466508412823   -0.66922888138603    1.84569380213253
C          -8.70704404462865   -2.02942534720618    1.92054744986012
C         -10.05334681358399   -2.06602832918279    2.26736241290027
N         -10.55600115758048   -0.84863011179304    2.40295212281027
N          -9.55822335761803   -0.00219621686471    2.14810970490411
C          -9.78329092728571    1.35559053291240    2.21672798799387
C         -10.94436740252085    2.01841911872779    2.51508642115084
C         -10.61889281117374    3.39251772074875    2.44582183853526
C          -9.30078610275031    3.45446657746488    2.11437998232381
O          -8.78460298141041    2.21716823252046    1.97351086808481
H          -1.42087779762922   -1.80394714821821    0.14809692338566
H           0.79555372042215   -2.15835190364967   -0.79056400155283
H           1.23449922096720    2.34841491284414   -0.42705184100939
H          -1.01116045930439    2.28074209395651    0.48536518964087
H          -5.56515596228987    2.05977882018047    0.93774556723130
H          -3.11494331330937    2.52507650633874    0.23866305934666
H          -8.03649013405253   -2.84351438381489    1.74228559032477
H         -10.68133750453123   -2.92074113497082    2.42506446995887
H         -11.88535542871271    1.56815896379142    2.74794982596044
H         -11.27905694689812    4.21701791022731    2.61962253301499
H          -8.63685725558663    4.28013582994761    1.95507032889184
