34
0 1
C          -0.79970773235686   -0.98945745691223   -0.15336951150513
C           0.40589308521708   -1.21370788250607   -0.66199443631153
S           1.50606080618532    0.03592842582125   -1.24040935164287
C           0.67930209132749    1.41305097064430   -0.51734744112920
C          -0.55384333828184    1.38835855363198   -0.02398250812260
N          -1.38424802068040    0.26633172338589    0.01665150536526
C          -2.70452218859572    0.38427857090124    0.34303483733108
S          -3.67595863029159   -1.01916141787407    0.68588145491767
C          -5.08868712264479   -0.01242091719365    0.97437146473878
C          -4.77184641606812    1.32651533309290    0.79603753810509
C          -3.45050069066758    1.55030671027962    0.43976147520770
N          -6.20869424507675   -0.65578767290294    1.29197607918890
N          -7.26188432157037    0.05952102949362    1.53873970070070
C          -8.37260651214925   -0.65023784192423    1.83392275175001
C          -8.68194119654674   -2.01266839556913    1.90439869284313
C         -10.02657856174843   -2.05520934702223    2.25141011561945
N         -10.53225799134609   -0.83719367603706    2.39128195279981
N          -9.53388982069752    0.01061309193425    2.13860471824165
C          -9.75313986053995    1.36811439625401    2.21035938477839
C          -8.95181055210641    2.46986761401574    2.03407744331839
N          -9.68518015094078    3.59389031702778    2.22634019297661
C         -10.89460508810769    3.19998147794885    2.51226545972009
N         -10.99599928617708    1.84867539710032    2.51687040029395
H         -11.79237053576436    1.25986094071824    2.70246020272766
H          -1.40772451733114   -1.81555330825785    0.18423282936228
H           0.80455122775882   -2.20884512317887   -0.74453898295546
H           1.27844079572427    2.30551499814253   -0.48433907684815
H          -0.96616046329410    2.27719307575617    0.42730295524291
H          -5.50920583242632    2.09916124986725    0.91762842012168
H          -3.06179815966022    2.53140617331909    0.23559526743530
H          -8.01105255930887   -2.82568348861433    1.72344280613822
H         -10.65297497342515   -2.91166924256479    2.40702599399004
H          -7.91293960311019    2.50154579911957    1.78684914609290
H         -11.71792963529920    3.85251992210178    2.72031851950691
