25
0 1
F           0.95465909494972   -0.28256639670649   -0.10566776512841
C           2.27045662449826   -0.09047937899124   -0.09203569632303
S           2.90652289149104    1.50874241428245   -0.08126401153917
C           4.52790251442572    0.84304385314653   -0.06737398824046
C           4.50972156188511   -0.53933165185862   -0.07148103397433
C           3.21830080417032   -1.07438532223105   -0.08561840675378
N           5.53803509799465    1.73084712413556   -0.05598726753107
N           6.73099825249381    1.24709733476746   -0.04512597350665
C           7.72836058836790    2.15506087164840   -0.03569640938299
C           7.78491442880488    3.55296793886234   -0.03821822803414
C           9.14169883296207    3.85181299111488   -0.02658031662213
N           9.88157544829718    2.75154192764576   -0.01639873790328
N           9.03620742213649    1.72804749785340   -0.02251536322410
C           9.52415204916662    0.43827384392674   -0.01508837155074
C          10.82723401174568    0.01472903953669   -0.00697291498369
C          10.76121823288779   -1.39690080361119   -0.00132143701970
C           9.43768532949192   -1.71516703261289   -0.00620039435765
O           8.67794715149089   -0.60275095957751   -0.01547712738044
H           5.41851800161405   -1.11282081287792   -0.06424484601803
H           2.98161977461761   -2.12239714583067   -0.09105772611664
H           6.94832414289782    4.21925934192138   -0.04766030933759
H           9.61802689719607    4.81207779080324   -0.02427174010656
H          11.69371362711667    0.64076742386250   -0.00537356221787
H          11.58760779060744   -2.07699980860277    0.00541305123842
H           8.92483942869038   -2.65591008060675   -0.00472142398597
