19
0 1
F           0.86759642474585   -0.25397658254665    0.05436716872155
C           2.18260784377791   -0.07670196140581    0.06678081509879
S           2.83576177476084    1.51279656375183    0.07313023568022
C           4.44969350451959    0.82693778479737    0.08790289093669
C           4.41506875107662   -0.55875979829741    0.08760550671669
C           3.11932359724454   -1.07516101497766    0.07552057112317
N           5.46632855541420    1.70039567783645    0.09665324689127
N           6.65770311128812    1.21312849913970    0.10607671751606
C           7.65755054626260    2.12315081183273    0.11390487941339
C           7.75225545247493    3.50990009957249    0.11540204326864
C           9.12712950385316    3.77566081641708    0.12435577798466
N           9.84071204131157    2.67042349728941    0.12975810265888
N           8.96256437356139    1.66057261889633    0.12244815374362
C           9.32533532955521    0.38227519222046    0.12432990211564
N           9.62218102731355   -0.72186884804734    0.12570853583937
H           5.31591258869881   -1.14526756200882    0.09597338621161
H           2.86743006598507   -2.11964761041278    0.07306570118819
H           6.93748767993193    4.20294525829544    0.11040607779196
H           9.62174782822411    4.72685655764720    0.12829028709957
