22
0 1
C           0.83993455172836   -0.10904596315521   -0.04469906471966
C           2.31662769240612    0.04971258148839   -0.03522135672047
S           3.04340913775967    1.60823172609085   -0.02227125137864
C           4.64444594187922    0.90087356032759   -0.01814697596209
C           4.57020869141259   -0.48586627099740   -0.02598117553819
C           3.26030167065108   -0.95359128109615   -0.03551775020897
N           5.67530183077230    1.75133791465249   -0.00997476202533
N           6.86018414173517    1.24219896889227   -0.00991118699485
C           7.87213179850424    2.13954584485870   -0.00368589106306
C           7.98511715468776    3.52436504667435    0.00294043650883
C           9.36367965616578    3.77246392828749    0.00519417977902
N          10.06469917097616    2.65958121920776   -0.00045223962088
N           9.17071737714070    1.65997035404693   -0.00522055985597
C           9.51740410404435    0.37843320576756   -0.01137420409883
N           9.80474677391640   -0.72856629414583   -0.01602481288391
H           0.34996692736232    0.86062833644489   -0.04838504636111
H           0.51317578916447   -0.66561474419128    0.83371401596089
H           0.52480056133272   -0.66684680533179   -0.92654095341249
H           5.45378331184638   -1.09841126408549   -0.02476971613310
H           2.99614581302065   -1.99657484980147   -0.04278169017212
H           7.17979703138462    4.22854956922577    0.00589564108574
H           9.86954087210906    4.71808521683948    0.00975436381518
