34
0 1
C          -0.89673593468951   -0.81515170253060   -0.44672751777892
C           0.30523443448711   -0.93156176549387   -0.99801838803232
S           1.44113534789192    0.39413506752158   -1.23893852591153
C           0.63311373202778    1.57375281016991   -0.21150465261635
C          -0.60206116658790    1.45396037405991    0.26215223340133
N          -1.45246081995629    0.36919558778937    0.03897470591952
C          -2.76606745268014    0.42736875386549    0.40514746884801
S          -3.74827168229940   -1.00733760152170    0.48040339077394
C          -5.14401881546102   -0.06421006637674    0.98532361084398
C          -4.81370618467096    1.28070433048691    1.07531233166835
C          -3.49458707266847    1.55677292871729    0.75101302744093
N          -6.26394145765132   -0.74706773197151    1.19956558557321
N          -7.32008467331616   -0.09124693583027    1.54922490758934
C          -8.43504974847048   -0.80690092460545    1.78177850433441
C          -8.79850817824021   -2.15633139357880    1.80127494233798
C         -10.14494046908904   -2.14781040896722    2.14854232657391
N         -10.59942823216348   -0.91432486159890    2.33119966263839
N          -9.56852603370039   -0.10852893693225    2.11187008014208
C          -9.65465126477108    1.25892773646001    2.20153638837427
C         -10.75666280373683    1.99987009199633    2.51746918098388
C         -10.48104536465189    3.38335862890612    2.51555774279562
C          -9.19119446303080    3.65911141596650    2.20077335216224
S          -8.25985950112982    2.23352799410561    1.89490616413419
H          -1.52797083969250   -1.68405432853742   -0.33487777950204
H           0.67788780004170   -1.88141643282830   -1.33662918922438
H           1.24602747790807    2.42344225303948    0.03076595207663
H          -1.00115839965107    2.21749050772011    0.91102201921786
H          -5.54233649377386    2.01546878434656    1.36531897024829
H          -3.09436053756920    2.55400521451291    0.74056432175962
H          -8.16371537848315   -2.99190805426939    1.59457296267717
H         -10.80871946073142   -2.98042112134874    2.27444083731789
H         -11.70977952858257    1.55695912962259    2.73714316147843
H         -11.21914013562954    4.13271226004902    2.73946075742111
H          -8.72059669927859    4.61934839705595    2.12912146433254
