23
0 1
C           0.88684015548939   -0.22801585087505   -0.20354877182747
C           2.36131418216307   -0.04744753858760   -0.14339680404584
S           3.07050061547600    1.52367887952190   -0.21333655505288
C           4.67825473392399    0.84610182320577   -0.09251941903600
C           4.62089123132240   -0.53378697405586   -0.00319702975356
C           3.31584488481190   -1.02689048910890   -0.03195955070362
N           5.69660889188131    1.72183037066067   -0.09023241770899
N           6.88846792284600    1.23434647910002   -0.02252101503645
C           7.90555383396302    2.12063460087066   -0.01106119208953
C           8.07915057517021    3.50386112105899   -0.05415574291185
N           9.38480743271660    3.80285683069550   -0.02502516573185
C          10.03000235597241    2.65453320889393    0.04769196869661
N           9.18791685151777    1.61007323230915    0.05539713712473
N           9.48582094880194    0.26165341482395    0.18715635631414
H           0.38753881586098    0.73373862717159   -0.28058236647393
H           0.52961241764013   -0.73876203006179    0.69070880663743
H           0.61304942757327   -0.83565782966664   -1.06618369159840
H           5.50534036628538   -1.13879312464522    0.08363095342607
H           3.07100555441627   -2.07324132375968    0.02739853516814
H           7.32268284089426    4.26021841052678   -0.10386579223986
H          11.09589589494092    2.55255634051716    0.08120220383846
H          10.04851913595149   -0.06633202475687   -0.59561963779032
H           8.59257093038122   -0.23088615383813    0.20259919079500
