22
0 1
C           0.84488308935857   -0.12231669542298    0.05771271848228
C           2.32197748326237    0.03600511588351    0.06623556837903
S           3.05073498302123    1.59509349453681    0.08110895168175
C           4.65043381609251    0.88693369572319    0.08302780769242
C           4.57539120521703   -0.49877966567496    0.07301244817097
C           3.26473265825054   -0.96676874678730    0.06359544829840
N           5.68399181589735    1.73690066658500    0.09164719077892
N           6.86546903888465    1.21896311319299    0.09109703709255
C           7.88887973488064    2.10013581014679    0.09682727099165
C           8.03116995751310    3.47760802597017    0.10042330159633
N           9.34140654310041    3.81666047781400    0.10279165641661
C          10.01690794842547    2.70885441549551    0.10081569302433
N           9.19538932584107    1.60880900039959    0.09701609716778
C           9.56300334742196    0.33610096366266    0.09393824215044
N           9.90743254689582   -0.75476851605562    0.09301504482128
H           0.35550704031460    0.84753944279306    0.05526730471953
H           0.51847601897944   -0.67926023558770    0.93600035321210
H           0.52877990617372   -0.67893065411006   -0.82448816610283
H           5.45789757668845   -1.11280529680842    0.07264371612478
H           3.00116506725126   -2.00993369735519    0.05471847797343
H           7.25603183764632    4.21631872573115    0.10113336075910
H          11.08583905888354    2.62996055986783    0.10173047656917
