21
0 1
F           0.83146526503358   -0.26117274882691   -0.05593892971753
C           2.15244977204727   -0.09320687476342   -0.04148167684543
S           2.82092004307308    1.49420308374958   -0.03902870553165
C           4.42979832618050    0.79792694571476   -0.01860734406252
C           4.38284832387301   -0.58314767857030   -0.01454695638204
C           3.08024977618647   -1.09386169523821   -0.02763216069086
N           5.44903155011043    1.67522866611725   -0.01056443943314
N           6.64255554254799    1.18810200244206    0.00349600123670
C           7.64482340322203    2.09072072555371    0.01078645924125
C           7.73685133282960    3.48374718087594    0.00800747849105
N           9.02517930751554    3.85614038352169    0.01949867815628
C           9.72452429254696    2.74140005846547    0.02894343187510
N           8.95041747979016    1.64365170664851    0.02455720483048
C           9.35888521643908    0.26925244396670    0.03142122738155
H           5.27536765572856   -1.18126065730099   -0.00243528194984
H           2.82391125966200   -2.13731879435768   -0.02715362809387
H           6.93749333200922    4.19639693438475   -0.00132851627828
H          10.79646049614703    2.70340216973973    0.03922155533418
H          10.44598812826173    0.21727837724707    0.04940694083792
H           8.98275816087907   -0.23596001111537   -0.85951203579701
H           8.95325133591675   -0.23536221825436    0.90958069739765
