20
0 1
N           1.16857276299485   -0.40035099170726    0.05514846539787
C           2.30642290470182   -0.25049436427757    0.06341575510513
C           3.69301984456144   -0.08138085518709    0.07236879292416
S           4.40406916725948    1.49413604923077    0.08046197590065
C           5.99660623903639    0.78661082045923    0.08888902286435
C           5.94216767743860   -0.60277633563929    0.08545608196296
C           4.64287105464819   -1.08920099977853    0.07609565043911
N           7.02753670602741    1.64755919802592    0.09693540782700
N           8.20838811722424    1.13384823836586    0.10282625817230
C           9.23242780156554    2.00985518220702    0.11038483125616
C           9.37577506694502    3.39035649029120    0.11286267481504
N          10.68337386980495    3.72619146615865    0.12101007739893
C          11.35861707554192    2.61588838044464    0.12361042490560
N          10.53867901562528    1.51846148152206    0.11723323782768
C          10.90346387309111    0.24285432813425    0.11705541964861
N          11.23839249821872   -0.85022952722690    0.12042483366411
H           6.83202356801699   -1.20594880240120    0.08976089583484
H           4.37948497586086   -2.13215599051462    0.07213664914556
H           8.60077974451357    4.12954932176006    0.10898425937699
H          12.42784803692363    2.53904691013279    0.12975928553299
