34
0 1
C          -0.83717955974480   -0.98465446244080   -0.14181154858479
C           0.36379686631378   -1.21624940719771   -0.65781304507675
S           1.46808194881516    0.02720253746631   -1.23968446738595
C           0.66305947924848    1.40575385928832   -0.49852212110833
C          -0.56762649910935    1.38949969688341    0.00130237971795
N          -1.41025501677716    0.27626796509844    0.03282061340935
C          -2.72930600662864    0.40599611561992    0.35664121816701
S          -3.71526248562881   -0.98710901589908    0.69621929538236
C          -5.11990701100098    0.03357999759525    0.98346521656114
C          -4.78731491905826    1.36947303493620    0.80649140880276
C          -3.46256000965023    1.57953453040791    0.45255840894188
N          -6.23957258528283   -0.61105786163665    1.29407521105485
N          -7.30356569445867    0.08617130566309    1.54942082366330
C          -8.41235218820855   -0.63552177292432    1.83971410795448
C          -8.70088389218333   -1.99464240057183    1.91067701853230
N          -9.99132032836171   -2.17743958778664    2.24378899653134
C         -10.50820262231150   -0.98131120130632    2.38090963731995
N          -9.60545935146209    0.00339158544214    2.14921745425160
C          -9.80989286010264    1.36950102781081    2.20757113013458
C         -10.91207515868538    2.14069396388745    2.49073282411839
N         -10.57175369872894    3.45033365589805    2.41158460331455
C          -9.30717372864355    3.48272261446114    2.09180053957192
N          -8.78932672671586    2.24103114362940    1.95429080559836
H          -7.86295074621418    1.88696640513320    1.71531648720830
H          -1.44910719460901   -1.80691603408916    0.19831732303630
H           0.75576741077143   -2.21346762790304   -0.74426423879801
H           1.27327116485443    2.29013395951750   -0.45877693641010
H          -0.96708546897972    2.27672792841786    0.46654756793762
H          -5.50792843529027    2.15944042125245    0.92203971100009
H          -3.06378925022556    2.55643436866376    0.24820138179505
H          -8.03594640634662   -2.81533106723677    1.73512628612896
H         -11.52697430005052   -0.78377007220704    2.64574303445836
H         -11.90848287732427    1.84058532274598    2.74093799971205
H          -8.73630184821968    4.37813907138212    1.95244087305944
