29
0 1
C          -0.61980244213910    1.36931252965523   -0.12944901733508
C           0.70282891022571    1.39786293199940   -0.24721306973741
S           1.76686611516367    0.01398361387775   -0.00731864301720
C           0.52322870311945   -1.23550305683960   -0.06392495772040
C          -0.78143544752149   -1.01310234628481    0.03558839609857
N          -1.37788210079854    0.23968893333490    0.18408371725401
C          -2.70343622335356    0.35184976452809    0.49842538944699
S          -3.72638238657020   -1.05412604016389    0.60151229047851
C          -5.11156083322067   -0.05738653780632    1.02048268692102
C          -4.74843543620250    1.27856626010203    1.06573619259409
C          -3.40819314585386    1.50966068053823    0.78229679072973
N          -6.25270550922779   -0.70797182295618    1.25057444820167
N          -7.29740121478293    0.00453939520975    1.53204310797915
C          -8.43587744141523   -0.67522485233181    1.78460867893422
C          -8.85965078250124   -1.99999363685716    1.86486253092533
N         -10.16820577071875   -2.04615506423572    2.16033320952205
C         -10.56859819145163   -0.79679220008865    2.27848779889105
N          -9.56580199737287    0.07024379434410    2.05985013148428
N          -9.58702280017811    1.45602285025351    2.15496803065253
H          -1.19249679233235    2.26229212655894   -0.32481579258646
H           1.22247601077888    2.29645552073779   -0.52767801823235
H           0.91638052525017   -2.22639771274378   -0.20202162581132
H          -1.47743793593417   -1.83735009158645   -0.01469086870517
H          -5.45644189993224    2.04779983822578    1.31621650661727
H          -2.96888556779943    2.49019516866095    0.81183796005219
H          -8.27750883419631   -2.88792882964873    1.72608399839995
H         -11.57046159533863   -0.49207229883588    2.50416821584990
H         -10.15865043696217    1.86080937965141    1.41492708542662
H          -8.62032547873381    1.76207170270245    2.03989482668589
