18
0 1
F           0.82223101264729   -0.25317649926295   -0.09005524607450
C           2.14039272147582   -0.08721619235494   -0.07808395669510
S           2.80819459534853    1.49783207931096   -0.07704750799856
C           4.41610776806771    0.79923086974340   -0.05956071780928
C           4.36938247800029   -0.58373884896421   -0.05534102382864
C           3.06805999058958   -1.09139608269620   -0.06590181171183
N           5.43732611866712    1.67135249877922   -0.05251278965418
N           6.62688822970227    1.18282017765749   -0.04062603219265
C           7.63173278053376    2.08582535908889   -0.03318079228591
C           7.75817454604424    3.47216919219930   -0.03340319312135
N           9.05605143072101    3.82776402516039   -0.02234199082673
C           9.75456694391149    2.71872673854842   -0.01533053997189
N           8.93731684905325    1.65381762315975   -0.02135421254010
F           9.33307771295262    0.35084680850620   -0.01682647382040
H           5.26274807277350   -1.18094884422388   -0.04483119211710
H           2.81015903163495   -2.13434870966308   -0.06479724025530
H           6.97292123935215    4.20021426696500   -0.04082408204833
H          10.82308847852441    2.65048553804620   -0.00602119704816
