26
0 1
N           1.01998169610429   -0.32441234589171    0.03183185712166
C           2.15925797549305   -0.18153223556608    0.04227433429217
C           3.54688828749095   -0.03202308642513    0.05571846404208
S           4.28739805461308    1.53299447022619    0.04979648441716
C           5.86939285683941    0.80151097649415    0.07451558914013
C           5.78815864356337   -0.58512635803547    0.08622867876239
C           4.48058995660883   -1.05210229587590    0.07563050516974
N           6.90624074558912    1.65686133542092    0.08171139274995
N           8.09130164081015    1.14603982094465    0.09767437312345
C           9.10268053894129    2.03387896758677    0.10947763352252
C           9.15949840774224    3.42893004835219    0.11215759016913
N          10.43446440220777    3.84225740731665    0.12993079078104
C          11.16936930215270    2.75635964354326    0.13829460005758
N          10.43100664617644    1.62050074868260    0.12673506132740
C          10.91977817612163    0.32696654689801    0.13093424177497
C          10.21856387588380   -0.84276695906274    0.11222716071955
C          11.06151116672114   -1.97379525341831    0.12398679237325
C          12.37921257712217   -1.65253912682104    0.15100503330666
S          12.63764103678160    0.04708680816396    0.16325276948048
H           6.66085811053993   -1.21191947430947    0.10258509758529
H           4.20223504215143   -2.09130657667460    0.08202544123921
H           8.33565337901183    4.11337625546963    0.10221664429861
H          12.24167832789132    2.75051011768649    0.15284076392487
H           9.14622353277137   -0.87149404843675    0.09083905369851
H          10.69701105701552   -2.98482081093377    0.11258517617079
H          13.22754456365562   -2.30694457533456    0.16461447075140
