22
0 1
C           0.88384512340382   -0.10562161573853   -0.06934051360449
C           2.35913400201027    0.06711024231475   -0.06440615186402
S           3.07449377729350    1.63019749519991   -0.05839457248860
C           4.68076395566561    0.93462549231362   -0.05505666393593
C           4.61504469951690   -0.45426381536832   -0.05850113471238
C           3.30965883325849   -0.93129270433191   -0.06373044102272
N           5.70182182890261    1.79331013340951   -0.05018736023662
N           6.89021906526545    1.29152159260566   -0.04810309541848
C           7.91044978311484    2.16965546907529   -0.04377207437658
N           7.95906135538838    3.47925075234426   -0.04160813439194
C           9.26381203589345    3.82143208070715   -0.03774365018147
C          10.06176380428735    2.70998251549158   -0.03744069551976
N           9.20498897645486    1.63685292408851   -0.04130137104681
C           9.52266636117928    0.35287409243338   -0.04255808005396
N           9.80324534777312   -0.75686238763676   -0.04368197193946
H           0.38534764998381    0.85942784769497   -0.07278702346399
H           0.56500644093142   -0.66408153615043    0.81068830256613
H           0.57126674095449   -0.66742581566957   -0.94944514479105
H           5.50301831830621   -1.06040829393092   -0.05714384884825
H           3.05211707247538   -1.97600538674598   -0.06704900663073
H           9.55934559278558    4.85184609966440   -0.03540005539706
H          11.12556923515515    2.58701481822941   -0.03492731264184
