28
0 1
C           0.78691760521435   -0.12981501308401    0.13438578493031
C           2.26742565960391    0.00384784589382    0.12679284571182
S           3.02491514882668    1.55038864597645    0.12359418438193
C           4.61429335815243    0.81696139858994    0.11430319814245
C           4.51094590480063   -0.56649194375937    0.11397818557590
C           3.19184671422121   -1.01391491269708    0.12094294967731
N           5.64872672056174    1.66470262114488    0.10905541444560
N           6.83594439496954    1.15914777411205    0.10250943295557
C           7.85006267838540    2.04617733607883    0.09727770148605
N           7.81611236941890    3.36634875520980    0.09638909570133
C           9.09100342655253    3.78120802320080    0.09082644963455
C           9.94645655560204    2.70664104607907    0.08820600355946
N           9.16493526011526    1.58998003541800    0.09208188390143
C           9.61938677829335    0.28835040484870    0.09093541313387
C           8.89377174545567   -0.86724976908612    0.08606094558238
C           9.71057271632087   -2.01711349700391    0.08624509474667
C          11.03606583674058   -1.72860526118751    0.09109763936592
S          11.33213240443301   -0.03484285914741    0.09576505552701
H           0.31610649108971    0.84896758724752    0.14602724430931
H           0.46037274639317   -0.68818223376869    1.01163857311363
H           0.44991917894583   -0.67170915823333   -0.74930229729049
H           5.37499286305566   -1.20575661536344    0.10897681287889
H           2.91193161348745   -2.05312508246324    0.12181930483652
H           9.33272836378537    4.82551838361272    0.08884789428438
H          11.01616132842181    2.65091290400475    0.08394172654885
H           7.82100690522434   -0.86783606728075    0.08255413880562
H           9.32208758152663   -3.01952555663071    0.08271068397836
H          11.86943765040192   -2.40206479171175    0.09215864007536
