34
0 1
C          -0.83710843216366   -0.95519591759966   -0.17734750072216
C           0.37305288414029   -1.14939099128822   -0.68668018636068
S           1.45287967176711    0.13174025475135   -1.23635039382766
C           0.61303185953839    1.47481279851769   -0.46628738427390
C          -0.62185002300619    1.41964516397395    0.01944414824756
N          -1.43964628595640    0.28840001037858    0.01726670495275
C          -2.76234608636721    0.38159128823341    0.34595969829441
S          -3.70775673294808   -1.03611439799788    0.70027445530679
C          -5.13467383888123   -0.05153839485970    0.98720056623054
C          -4.84190691519131    1.29247392541925    0.80099220502885
C          -3.52567027541767    1.53678047280902    0.43917677377302
N          -6.24264203800296   -0.70980187633025    1.31187043651491
N          -7.30099908119781   -0.00114042617190    1.54830503852417
C          -8.41655273209091   -0.68784669758116    1.84801025402725
N          -8.64432248838296   -1.98796944241567    1.89096591498585
C          -9.93723494014526   -2.13651319473525    2.22339866191028
C         -10.53798875891738   -0.91586173769707    2.39429705074604
N          -9.57234340548056    0.02261663570048    2.15443492264184
C          -9.74593500497705    1.38896168481514    2.21801646166438
C         -10.87088105947324    2.11985619665676    2.50290021640399
C         -10.47275090311906    3.47486388605728    2.42617251303384
C          -9.15175292082115    3.46228515972137    2.10453526444690
O          -8.70441160701349    2.19898830269617    1.97705134094401
H          -1.43441909967840   -1.79671479324884    0.14070686798605
H           0.78931103218657   -2.13515965634635   -0.78882519704674
H           1.20462985411659    2.36987799861783   -0.39682110051883
H          -1.04542167329215    2.28598943691701    0.50304799784952
H          -5.59840911543174    2.04586053082952    0.92607232571458
H          -3.15066415827727    2.52134741359701    0.22507810382365
H         -10.37186665291801   -3.11176948507825    2.32249437097460
H         -11.54039201965625   -0.65241890415923    2.65827310028417
H         -11.84745872816469    1.74970013183811    2.73449620071487
H         -11.09103378992646    4.33312898522919    2.58937006123278
H          -8.44308653484997    4.24939563875090    1.94406010649258
