30
0 1
C          -0.80401750194338   -1.00298449342259   -0.14956171671670
C           0.40335974466748   -1.21205385436818   -0.65938101614259
S           1.48506755253539    0.05449046098344   -1.24030283173572
C           0.64997162890075    1.41793714207396   -0.49932409061314
C          -0.58199554433606    1.37534917436467   -0.00496026156765
N          -1.40183664501063    0.24590838372074    0.02387155011707
C          -2.72564156197820    0.34941131928840    0.34995256062994
S          -3.68623904579895   -1.06391737249045    0.68251607706883
C          -5.10679636027711   -0.07118072013148    0.97497302341723
C          -4.79988651587764    1.27041657918140    0.80639768940952
C          -3.47876530704815    1.50851367710399    0.45273645325878
N          -6.22437598535853   -0.72509755992858    1.28541336464415
N          -7.27615899628627   -0.01186900177229    1.53325732589541
C          -8.40420575944457   -0.68663393437405    1.82900007337098
N          -8.66538172598522   -1.98572414308273    1.89197003414876
C          -9.95859748920700   -2.08522476420893    2.22667394332658
C         -10.51621051426307   -0.83399135895903    2.37607749447986
N          -9.52566822558090    0.05339403775971    2.12123587295958
C          -9.59994922393441    1.48505982411513    2.14853530286182
H          -1.40244315581940   -1.83601840956322    0.18797866922310
H           0.81715326237180   -2.20046633646953   -0.74282276478856
H           1.24285368806521    2.31377505338861   -0.45831535807462
H          -1.00201154460024    2.25470998917747    0.45656139740103
H          -5.54634427050948    2.03314131477063    0.93472290688540
H          -3.09723920616945    2.49396679060611    0.25555635820436
H         -10.42757374660270   -3.04233791520173    2.34390339168067
H         -11.50950012028754   -0.52723053663431    2.63547595808457
H         -10.61500284430554    1.79119531195374    2.39603910821751
H          -9.32263364328387    1.89034103501934    1.17409514116519
H          -8.90717094263106    1.88075030710256    2.89314434319002
