19
0 1
F           1.01942974820373   -0.29218442114579   -0.02675635168333
C           2.33492233279645   -0.11687356940843   -0.01242618326939
S           2.99347508310245    1.46981775410607   -0.01829124893774
C           4.60557872281435    0.77857939431605    0.00696874003329
C           4.56449562254348   -0.60844090855292    0.01859578647298
C           3.26777798805786   -1.12011852869204    0.00752424834971
N           5.61810775313998    1.65264608800447    0.01162556275323
N           6.81158293950750    1.17055452819308    0.02898819276065
C           7.81800967804369    2.06459097430007    0.03430286569046
N           7.84218417859770    3.37550947163689    0.02731566662719
C           9.13796097794578    3.74271835632400    0.03925046501556
C           9.95732780985792    2.64450157436389    0.05416163295225
N           9.12238714620218    1.55703711888810    0.05124162625993
C           9.46423083864765    0.27786045221571    0.06192147053579
N           9.76242392390425   -0.82666175085911    0.07167090375234
H           5.46255426721709   -1.19897287138518    0.03452866009597
H           3.01174614623344   -2.16361928955497    0.01354057647078
H           9.41427130875945    4.77834022483939    0.03652379757864
H          11.02341353442501    2.54306540241073    0.06615358854168
