21
0 1
C           0.94428970189422   -0.23924015480502   -0.06415066264250
C           2.41943494603783   -0.06145221460918   -0.05607486237932
S           3.12987240875406    1.50617461077822   -0.04943892157951
C           4.73815224198561    0.81762592379554   -0.04405826489771
C           4.67790042675708   -0.56914629240567   -0.04679389618675
C           3.37343605740235   -1.05369337271051   -0.05351095713911
N           5.75956709410304    1.68158677347950   -0.03927256688615
N           6.94575217280074    1.18159200196551   -0.03908893711469
C           7.97197586274440    2.05477418931049   -0.03552701437479
N           8.03560924035959    3.37519746851647   -0.03103618515870
C           9.33724458206180    3.70760730596178   -0.03042458684633
C          10.13015548525452    2.58465079345356   -0.03456001460742
N           9.24927195815279    1.55942937944344   -0.03759042897869
F           9.61391267432336    0.24422258708791   -0.04236002279758
H           0.44266582489995    0.72427397059133   -0.06655909487762
H           0.62490909306548   -0.80011047140604    0.81421031928354
H           0.63473507602860   -0.79944799114707   -0.94642844943629
H           5.56753470100208   -1.17257016738368   -0.04391724806532
H           3.12210563882184   -2.10001809904017   -0.05675643078926
H           9.64025106635450    4.73558610709275   -0.02707440399586
H          11.18893374719618    2.43416765203079   -0.03566737052993
