25
0 1
F           0.96600265825139   -0.48487964332455   -0.41619951853535
C           2.26028367158422   -0.26068259281262   -0.21447653565419
S           2.97010609139682    1.22127283726764   -0.73009069982248
C           4.52448654019148    0.66244479966726   -0.14066599391046
C           4.42556850889366   -0.59816341789559    0.42714349550395
C           3.13061899607652   -1.12248609175788    0.39071310060627
N           5.53579825651497    1.53521208486722   -0.22774922993509
N           6.73041845992222    1.09511325136786   -0.03614566275529
C           7.72373214303077    2.00330373031663    0.00350891737750
N           7.67512790720542    3.32606660801131    0.00960899947009
C           8.93939427837803    3.74771909827066    0.10696584894707
C           9.80730271975252    2.67598179939216    0.16196703853201
N           9.03777041699696    1.55999723946520    0.10055759086238
C           9.47427616132286    0.25040551137137    0.11706714588668
C          10.72826839859336   -0.30909052204972    0.22276303910281
N          10.62024395365505   -1.65746988211650    0.19049021783946
C           9.34811937111230   -1.92203758613093    0.06827998457701
N           8.60092455850215   -0.79602393911622    0.01749796427419
H           7.59988803441943   -0.63555919881461   -0.06493672144065
H           5.26344462948250   -1.09516879011617    0.88194453483154
H           2.84157746307355   -2.08088485551257    0.78071296810724
H           9.17302800971905    4.79327428229208    0.13562474404217
H          10.87357156246082    2.63219810662641    0.23810428221683
H          11.68210491485853    0.16680810011789    0.32005427052454
H           8.93271229460493   -2.90747092938630    0.01236021935168
