19
0 1
N           1.04535588941209   -0.42347007806697    0.00677866050026
C           2.18322571071301   -0.26951469116020    0.01609242757101
C           3.56899377949369   -0.10206158555217    0.02722974643220
S           4.28859657883265    1.47181840070603    0.02721079677192
C           5.87874400029413    0.76002939852055    0.04377817162324
C           5.81638630779347   -0.62878852319295    0.04864601693153
C           4.51546824670696   -1.11222959433408    0.03931803963243
N           6.90458154022651    1.62659528336498    0.04856965185714
N           8.09201150219169    1.12959281633749    0.06238655935750
C           9.11281571220155    2.00766226459659    0.06609373161201
N           9.13552800868943    3.33302416750259    0.05728032195176
C          10.42489465894980    3.68429076434157    0.06687468973599
C          11.23323504408183    2.56342019690313    0.08202770285748
N          10.39211920331109    1.50599396579288    0.08137662103308
H          10.63405436509741    0.52872948717825    0.09031546173498
H           6.70216260204030   -1.23736572603238    0.05857091522801
H           4.24885487407953   -2.15461477197282    0.04112313050727
H          10.71632519533914    4.71578116476047    0.06255528607584
H          12.29899678054575    2.46044706030701    0.09264206858635
