21
0 1
N           1.12616406889086   -0.48153867353480    0.31656021514566
C           2.25536777289063   -0.28571849488286    0.24232766278499
C           3.62988133289001   -0.06660439801824    0.14911820233179
S           4.31027170663997    1.51518733612760    0.34767962750050
C           5.91286749277672    0.87058638606160    0.12065308149867
C           5.88218494684158   -0.49981039778717   -0.11283144506216
C           4.59689956114947   -1.02400623835950   -0.09898584227993
N           6.91521962838721    1.76251232716876    0.12278936507782
N           8.11661618460163    1.29952924823912    0.14209345792915
C           9.12925508668178    2.17507037682622    0.07762851084591
N           9.18932082391525    3.50032334539829   -0.01612604817722
C          10.48264501403445    3.81262029727924   -0.00680165762953
C          11.26765843765322    2.67067971804058    0.08239334145557
N          10.40261018686427    1.64292229979299    0.13759620654234
N          10.68752006260938    0.29288115759081    0.14998314795931
H           6.77502897420447   -1.06864311019992   -0.29890862467389
H           4.35815907925478   -2.06147960187828   -0.25475123195940
H          10.80729220854687    4.83240098414441   -0.06455109398229
H          12.32912461971933    2.53672004023365    0.11435123505369
H          11.30064488099219    0.04427554791369    0.92237974800358
H           9.79787793045514   -0.19954815015748    0.21681214163378
