26
0 1
N           1.19659210303469   -0.61169975940411   -0.05210811414860
C           2.32801114988034   -0.41641989104561   -0.04851733996397
C           3.70664613500927   -0.19911449620088   -0.04360794423694
S           4.36937662115158    1.40035476698395   -0.04455611650146
C           5.98246410206576    0.74541465482897   -0.03427543224893
C           5.97163170824175   -0.64488264916839   -0.02961218499854
C           4.68921606127165   -1.17488767717128   -0.03522763654481
N           6.98659876096579    1.63792481596526   -0.02886269498204
N           8.17860528760304    1.15017466468295   -0.01661655005133
C           9.19158647630523    2.02904770801453   -0.00791970217074
N           9.18660115088906    3.35192993401181   -0.01202513168829
C          10.46708286958273    3.73723969300587    0.00220139231223
C          11.30255762176084    2.64241388518867    0.01509820107831
N          10.49650341759401    1.54545652327240    0.00870739451221
C          10.92254188836049    0.23211920297490    0.01725166429081
C          12.19534648435364   -0.27901807026598    0.02683951033773
C          12.03918085139473   -1.68407461152121    0.03277368885040
C          10.69836156907879   -1.91466795426947    0.02581886272336
O          10.01543767319023   -0.75595970697038    0.01691498449328
H           6.88380073070429   -1.21340613692338   -0.02248271484721
H           4.45925479391089   -2.22605681215026   -0.03251102721448
H          10.73271035180144    4.77575702262193    0.00229993913472
H          12.36982851608448    2.57240893810328    0.02846259807553
H          13.11688713825943    0.26425467010802    0.02928319011895
H          12.82178452165886   -2.41382360931337    0.04075645152083
H          10.12604201584644   -2.82026510535855    0.02670471214878
