20
0 1
N           1.09639308471299   -0.33955004273388    0.05839978538516
C           2.23244821781164   -0.17691624666941    0.06781406948577
C           3.61812156113228    0.00222933631093    0.07947948761357
S           4.32080990888417    1.57971932817381    0.07750150662863
C           5.91710566906100    0.87957722455951    0.09584255014853
C           5.86805108441525   -0.51220943258461    0.10267034188965
C           4.57216636242082   -1.00380080514360    0.09342338287934
N           6.93903901019631    1.74609127310033    0.10049888627527
N           8.12472882264729    1.24526527922124    0.11537121581669
C           9.14638278062232    2.11910715860576    0.11935656514142
N           9.19399457263242    3.43040258517517    0.10924007401963
C          10.49429775499628    3.77423275244623    0.12020019276891
C          11.29476006370530    2.66007826366199    0.13768210034151
N          10.44183419002418    1.58900637597193    0.13729995073823
C          10.75915369839889    0.30273932578859    0.15113574285536
N          11.03359094582462   -0.80774895006866    0.16243198429431
H           6.76166720224550   -1.10972216565408    0.11389490655018
H           4.31160501881943   -2.04750531372697    0.09656000114690
H          10.78939639258441    4.80461348353981    0.11498240779614
H          12.35903365886489    2.54072057002584    0.15001484822475
