22
0 1
N           1.21078509932982   -0.39872921374349   -0.10441995123428
C           2.34671220368894   -0.23096886602604   -0.09320529929590
C           3.73018636261317   -0.04914854942718   -0.07961653346323
S           4.43508755235778    1.53255798833236   -0.08333996785958
C           6.03195848292806    0.83661904157148   -0.06144027851736
C           5.98296199032958   -0.55247132049374   -0.05269105052051
C           4.68682003440522   -1.04905375442941   -0.06315341077913
N           7.05109789846225    1.71175709838743   -0.05737092711221
N           8.24161513588454    1.21931031089702   -0.04068093764855
C           9.25843688364571    2.09834966503326   -0.03748847723330
N           9.26855651724685    3.42732273722976   -0.04885836231685
C          10.55260066637143    3.78668664378950   -0.03850639199989
C          11.36625987242636    2.66704044072194   -0.02043166754524
N          10.54212485150589    1.60016276160714   -0.01980519630637
C          10.90410221321821    0.21233438257787   -0.00428190299020
H           6.87483340754505   -1.15200956154103   -0.03949125383039
H           4.43076955397615   -2.09411128298597   -0.05903374999225
H          10.84054006688415    4.81916952258091   -0.04438848740811
H          12.43340311371332    2.57235758300636   -0.00850078035113
H          11.98861083842425    0.12072749494053    0.01000054071421
H          10.50730739889448   -0.28597423366243   -0.88987772198385
H          10.48511985614890   -0.27182888836628    0.87891180767410
