20
0 1
F           0.91665144401440   -0.39294839866898    0.02671838402846
C           2.23104634757069   -0.18677591599789   -0.00697889818700
S           2.85723747212346    1.41508715205140    0.07628142014778
C           4.48342719277271    0.76671417680294   -0.01697583492364
C           4.47102830909116   -0.61368239305236   -0.10991876856151
C           3.18396132605419   -1.15977462660821   -0.10570591456582
N           5.47529030088015    1.67216431077410   -0.01650559602513
N           6.68147488727678    1.21991403454122   -0.02365154737483
C           7.68488064886195    2.11211842260238   -0.04224505182278
N           7.73039915408817    3.44034401295874   -0.04813362790552
C           9.02246767304722    3.76562399238465   -0.04251934795310
C           9.81880225588257    2.63057471480319   -0.04287272955400
N           8.96275361531181    1.59151277746282   -0.03965268997001
N           9.26354617815198    0.24487175933196   -0.11515221702516
H           5.37522037882589   -1.18895064311106   -0.18687936425279
H           2.95638417119147   -2.20784703619972   -0.17027394642358
H           9.33544940339677    4.79073015764063   -0.04008219723955
H          10.88150794971015    2.50322325629002   -0.03953014832210
H           9.85842388586070   -0.04784966368051    0.65694639140597
H           8.37546740588771   -0.25539009032516   -0.09400831547566
