27
0 1
C          -0.57381545523811    1.34074718579244   -0.13428464598365
C           0.74892919137173    1.36234806142650   -0.25427812216815
S           1.80756493271797   -0.02416236448825   -0.00883334253714
C           0.55801390972947   -1.26822611003790   -0.04301457247090
C          -0.74566039558320   -1.03925329078073    0.05569644120353
N          -1.33785618640013    0.21756130635171    0.18742887394636
C          -2.66350050188098    0.33687325695292    0.49641488101166
S          -3.69296087021651   -1.06232052477362    0.61160521711600
C          -5.07527004183771   -0.05422427038981    1.01572024009766
C          -4.70403951937609    1.28209901186134    1.04753553980490
C          -3.36388581342422    1.50352480195842    0.76548623473623
N          -6.21862691424191   -0.69545334299482    1.24075308023644
N          -7.25848424220339    0.02112879308162    1.52627393807294
C          -8.40083480373845   -0.65319647177705    1.77166107363458
N          -8.67668593265176   -1.94729346943247    1.80705778531285
C          -9.97993478640010   -2.04160262723258    2.11356850616125
C         -10.53380220120376   -0.79198982344388    2.27328811736260
N          -9.52248466438275    0.08588468028759    2.05537440333439
H          -9.56338464937948    1.09066499959811    2.08680520479471
H          -1.14158918576797    2.23569462588406   -0.33472118116782
H           1.27189066196604    2.25708523705728   -0.54131454237000
H           0.94678998282591   -2.26286797769320   -0.16602212258750
H          -1.44493355318287   -1.86134736258216    0.02005173223828
H          -5.41461044099460    2.05289470162438    1.28505326598943
H          -2.91899810635004    2.48190784082068    0.78416118345872
H         -10.45604310127256   -2.99797610172023    2.20520824315098
H         -11.52938731288483   -0.48094076535011    2.51573456762163
