25
0 1
F           1.04082832503959   -0.38202503010966   -0.10377565902044
C           2.35631764959625   -0.18265736550973   -0.09141116217958
S           2.98729716976679    1.41831754314553   -0.09149675102657
C           4.61077459638601    0.75834279479366   -0.07283053456708
C           4.59564007133541   -0.62562206859281   -0.06743561695984
C           3.30686350715713   -1.16495356389001   -0.07805376590009
N           5.61259233031908    1.65169048187296   -0.06635466798543
N           6.80855149262018    1.17584248997718   -0.05344801782366
C           7.81137499196468    2.07067619674238   -0.04707972275791
N           7.78779157700067    3.39205660170437   -0.05108298156906
C           9.06471301104487    3.79575997216112   -0.04063327951333
C           9.91428088400446    2.71440705533453   -0.03037073775105
N           9.12196532062898    1.60511604723221   -0.03418839876347
C           9.56720739690670    0.29828557611857   -0.02671683924596
C          10.84739141335367   -0.19344945729328   -0.01409736813402
C          10.71300548334447   -1.60093602172580   -0.01108957066286
C           9.37619898761311   -1.85207306323153   -0.02331463089125
O           8.67541004618267   -0.70370333833425   -0.03173751257597
H           5.50633790259379   -1.19572176110819   -0.05618063002320
H           3.07272284489239   -2.21358945675441   -0.07624087055538
H           9.31468869070476    4.83815636700596   -0.04119021098564
H          10.98231221377525    2.65778528793975   -0.02082933537457
H          11.76056311689718    0.36368307787654   -0.00730876232971
H          11.50682125208455   -2.31853440610419   -0.00162994562485
H           8.81740972478745   -2.76600395925095   -0.02624302777892
