23
0 1
F           1.06855452419966    0.25645340733998   -0.05033773235745
C           2.39216557583958    0.35336904101888   -0.03268811910421
S           3.14124455066289    1.90000519959266   -0.03245657402844
C           4.70968979014632    1.11822719928706   -0.00548534721313
C           4.59022399849498   -0.26183457228479    0.00179834583867
C           3.26596305009028   -0.70012771436303   -0.01386094161700
N           5.78287822562065    1.92600798880831    0.00361900923423
N           6.93064701886098    1.35533048743540    0.02435503340879
C           8.00338293099135    2.17799585754840    0.03452912444151
N           9.25701171562370    1.66387501623173    0.05026056478220
N          10.06712813441531    2.64515542511612    0.05860024715470
N           8.04608947776265    3.51825167958581    0.03261899948994
N           9.33678520976763    3.75380992695432    0.04771909677927
C           9.86077103014754    5.02259332911383    0.05164606217540
C          11.15587894452763    5.48720418424158    0.06634395141869
N          11.13824690257642    6.83795113253404    0.06552403120990
C           9.88270675423013    7.19490054969932    0.04786945750189
N           9.05329524376390    6.12592559422915    0.03980170411151
H           8.04549977983675    6.09555959487216    0.02760510423547
H           5.45503915869652   -0.89948459996400    0.01771534734893
H           2.95274383411870   -1.72771283407730   -0.01170661113314
H          12.06704979098280    4.92696267835189    0.07839233132475
H           9.53819435864357    8.20882142872861    0.04169691499756
