22
0 1
C           1.04931365143849    0.07239781729855    0.06501684690958
C           2.52842181701189    0.21531165651962    0.06741768567373
S           3.27767158156309    1.76406226854066    0.06869051844084
C           4.86719328297151    1.03467390027058    0.07178768493482
C           4.77335142043185   -0.34907598244364    0.07153682403583
C           3.45708972816738   -0.80069034216928    0.06906064300200
N           5.91924974275782    1.86605436897350    0.07305200166406
N           7.08069827509833    1.32184647326557    0.07574753966247
C           8.13405302249925    2.17324919174329    0.07790713826343
N           9.39957727738790    1.69219512591442    0.07231399607480
N          10.17850222782571    2.70579714811561    0.07886783631363
N           8.14493949057459    3.51494777783800    0.08523489863918
N           9.42217575636310    3.78498748198713    0.08519206731425
C           9.94539247327339    5.11498480477233    0.09271886260333
H           0.56986062590929    1.04700394273300    0.06086532642877
H           0.72106828603994   -0.47832981278492    0.94647027431313
H           0.72451138605237   -0.48435582378425   -0.81388691124149
H           5.65001700266703   -0.97104268144675    0.07302096445713
H           3.17933102600094   -1.84022346447947    0.06843005081954
H           9.10677152707662    5.80732341077978    0.08751567969839
H          10.56849825327998    5.26929238109408   -0.78855980201389
H          10.55364214560953    5.26570035726219    0.98503987400649
