21
0 1
C           1.12181124841221    0.01401773806373   -0.02728937269725
C           2.59916927018756    0.17541117170517   -0.02160082024785
S           3.32607722974953    1.73449150322030    0.00682667520959
C           4.92605638363622    1.02857899653225   -0.00560686957374
C           4.85191201817150   -0.35667175686254   -0.02802428935036
C           3.54222634977915   -0.82726971677016   -0.03589003446517
N           5.95780596619623    1.88171366148719    0.01794455694703
N           7.13701345424639    1.37675644241898   -0.01194749455904
C           8.15087558481494    2.27748693672783    0.01579812155338
N           8.08675944729105    3.62476626813686    0.02837222620383
N           9.29863470502815    4.05401346033734    0.03600312874486
N           9.43051233249087    1.86341849505345    0.01369726534702
N          10.07266701431639    2.99343939296467    0.03360109673461
N          11.42743116218707    3.07219937784857    0.11336184430506
H           0.63171498555826    0.98330902034417   -0.03699776569057
H           0.79704678119056   -0.53529464485727    0.85640917867881
H           0.80539074299111   -0.55051662360183   -0.90417745776326
H           5.73674996759938   -0.96694460218591   -0.03500718120342
H           3.27941470257929   -1.87064907790775   -0.05241732005041
H          11.86508152101402    2.26447463849907   -0.31442490392658
H          11.75345913256012    3.95900931884593   -0.25188058419654
