18
0 1
N           1.30613114087974   -0.27761519629276    0.06901354465599
C           2.44294374300893   -0.12444831561784    0.07164036467262
C           3.83143073575709    0.04418522984283    0.07546935540708
S           4.54492377150558    1.61251125571590    0.08068866162856
C           6.13553066041472    0.89666061727990    0.08311677341633
C           6.07469507445599   -0.49551007824062    0.07985521652602
C           4.77504902250103   -0.97399968263759    0.07556142493651
N           7.16435866084488    1.75284058303933    0.08774657317395
N           8.34635733987164    1.25933413248345    0.09014852438286
C           9.34274481189496    2.17784942067370    0.09441197693868
N           9.23245287232542    3.54726884394270    0.09382298823248
N          10.39191660946517    4.02130168371248    0.09852198619089
N          10.61698386065605    1.81600263497685    0.09948030177348
N          11.24999819439084    2.97587741061249    0.10204351837198
C          12.57770009046411    3.10636004872043    0.10853171496536
N          13.71201500793372    3.23892056298113    0.11059588735403
H           6.96399153705090   -1.09969302575184    0.08073996872711
H           4.50276686657926   -2.01463612544023    0.07258121864602
