17
0 1
N           1.18604673585477   -0.27253382238049   -0.06115922155646
C           2.32548981634677   -0.13629924006596   -0.05811835161522
C           3.71549501160759    0.01219412430248   -0.05443099215725
S           4.45157660099824    1.57309712769141   -0.04899074703296
C           6.03138583574001    0.83796859990213   -0.04713215815411
C           5.95321875346669   -0.55071555769437   -0.05093347654558
C           4.64637869005923   -1.01490932261518   -0.05504390089505
N           7.07378226264372    1.68521532612174   -0.04330148671252
N           8.24547882232445    1.17353604262932   -0.03845582941421
C           9.26470200540353    2.07190261066380   -0.03480723432175
N           9.19449830946874    3.43321229041960   -0.03310369757194
N          10.38883465200627    3.86373765403924   -0.02856502596179
N          10.53791797504850    1.67137642301401   -0.03090808832398
N          11.18615943640994    2.80846035290955   -0.02711312932024
H          12.19491773308580    2.86377341111002   -0.02335926029418
H           6.83447789384293   -1.16626609158722   -0.05083094652925
H           4.36329946569284   -2.05272992846009   -0.05827645359350
