27
0 1
C          -0.89622915177309   -1.04150787794695   -0.03385194021788
C           0.32119949655368   -1.25407764949255   -0.51839061710214
S           1.42084141687650    0.00470888638713   -1.07669587147136
C           0.56385328064381    1.37597127450498   -0.38140833551583
C          -0.67854902026430    1.34003819807750    0.08746465784974
N          -1.49716786976436    0.20903252347833    0.12068238462157
C          -2.82397712206704    0.31449514379291    0.41948378917372
S          -3.78432792223740   -1.09025087030041    0.78000616394055
C          -5.21413517684476   -0.09319737282015    1.00705904846147
C          -4.90868533415293    1.24616548633456    0.80234501755660
C          -3.58380043508884    1.47706259059493    0.47275073897000
N          -6.33423874305364   -0.73422127073893    1.32222172227648
N          -7.39888613029189   -0.02534870407429    1.49492300874424
C          -8.51754669325739   -0.73553908248311    1.77169847246371
N          -8.70233718974772   -2.07196105270728    1.71749319787578
N          -9.93815557309720   -2.28731841437574    2.00563180410113
N          -9.66342937177061   -0.11064834507549    2.09784990270021
N         -10.47965990082553   -1.11523228704997    2.23522117837450
N         -11.77158170631809   -0.96798643916484    2.64021145944819
H          -1.50363386795885   -1.87292579428471    0.29135819957411
H           0.73075267047943   -2.24524228555357   -0.59342460286790
H           1.15072928190041    2.27629313739327   -0.34398770449285
H          -1.10960340174029    2.22694475459189    0.52437807036256
H          -5.66406111691779    2.00534980354226    0.89457351135408
H          -3.19902904295485    2.45614063981023    0.25240053629365
H         -12.14989615776205   -0.08083292978260    2.32794438738119
H         -12.32085521856557   -1.76902206265787    2.35007182014438
