26
0 1
C           1.09038539912559    0.17581475539934    0.17755215704884
C           2.56913878905513    0.30443539810169    0.11414675006274
S           3.33863951179520    1.83901340803392    0.22307704461703
C           4.91603769075757    1.09855323306385    0.07411195761212
C           4.80290642913028   -0.27895228805582   -0.05201410965375
C           3.48268902951717   -0.71601260705612   -0.02837203877018
N           5.97686463843527    1.91562745244221    0.10246679836348
N           7.13125617665701    1.36410817610281   -0.00954500154772
C           8.19222123633946    2.20197296447153    0.02156345358945
N           9.45054533279311    1.70622624140924   -0.07635466408498
N          10.24901864801498    2.69589372754742   -0.02140182151861
N           8.22153828477957    3.53502081525143    0.13943871996417
N           9.50401551398856    3.78893300029491    0.10718132641013
C          10.03728743996071    5.05037575625222    0.19693467710049
C          11.36387414662352    5.37960722306107    0.18218677365866
C          11.55065512468973    6.76996474248430    0.29423401398503
C          10.37806674671190    7.45331001619013    0.39013705770303
S           9.00267045811102    6.42384542052671    0.34685636453694
H           0.62375166468412    1.15323514290080    0.25875456366928
H           0.79975073282919   -0.42529711990941    1.03921892197201
H           0.71501071280961   -0.32235162083151   -0.71605472605093
H           5.67025695666307   -0.90553956310599   -0.15425674877404
H           3.19049533104680   -1.74808988728332   -0.11234341980345
H          12.14721129575745    4.65047290179037    0.09515010792815
H          12.51654192093127    7.24080301916304    0.30322929398461
H          10.23714078879297    8.51133969175509    0.48447254799754
