17
0 1
N           1.13521187459476   -0.23758410786793    0.06576597620092
C           2.27434452358079   -0.10072914996216    0.06792167399474
C           3.66552189760803    0.04264122546120    0.07262890626390
S           4.41103384884300    1.59699901902181    0.07775740360510
C           5.98636378408803    0.85031645238154    0.08120107046321
C           5.89802863144516   -0.54001313994197    0.07818698693802
C           4.58909070019703   -0.99336960809578    0.07334108023867
N           7.03352012672018    1.68580340106642    0.08605635136628
N           8.20279318893417    1.16421511067889    0.08968743714642
C           9.22541607089809    2.05598746358348    0.09518621022668
N           9.16015110443685    3.41366934144976    0.09900023571543
N          10.36171308781218    3.84501359496458    0.10441269878507
N          10.49863675392039    1.64605867394684    0.09839760505408
N          11.11079813475961    2.78212654375455    0.10384268118403
F          12.44575287808809    2.85331284973232    0.10875059859311
H           6.77551263063431   -1.16101620371144    0.07950851938769
H           4.29656076343934   -2.02854146646211    0.07035456483666
