32
0 1
C          -1.04509672846721   -1.13791103026464   -0.05049340037721
C           0.16702737532925   -1.37414339121959   -0.53795478100945
S           1.29985674266736   -0.13768632482812   -1.07640030416510
C           0.47182290073115    1.24758825126255   -0.37583103860474
C          -0.77113001354059    1.23714058046521    0.09317676905915
N          -1.61542576648678    0.12466641387887    0.12153068197210
C          -2.93608014709818    0.25811659916414    0.43118513677579
S          -3.92570603618373   -1.12620367398027    0.79254590604966
C          -5.32858943299813   -0.09710733294294    1.04317961463137
C          -4.99407350601729    1.23706183917040    0.84153882179902
C          -3.66912791387087    1.43835304149742    0.49848315958042
N          -6.46280859150611   -0.70616166265887    1.36785967787411
N          -7.49837056024032    0.04265399268683    1.56294572787142
C          -8.63914004016010   -0.61217221359815    1.86409024148844
N          -9.76493934590899    0.08296356630314    2.17557404150481
N         -10.68486116314841   -0.76776147496914    2.38990288652036
N          -8.87960074228030   -1.92929842912844    1.88672822565529
N         -10.15312341681775   -1.97393484071286    2.21395330229257
C         -10.84000170134448   -3.15798207425131    2.35489518903245
C         -10.39703702779665   -4.44666311306584    2.22523225679690
C         -11.53006123832433   -5.25152049598618    2.48224094204083
C         -12.55554096973700   -4.39379201639105    2.74408623560105
O         -12.14292991372420   -3.11713453772865    2.66826179711055
H          -1.67344069291151   -1.95863107508645    0.26173758345647
H           0.55006454874286   -2.37470189057421   -0.62806286011322
H           1.07755218783435    2.13530067672601   -0.33473452168939
H          -1.18186039022538    2.13168023576473    0.53399025156827
H          -5.73228769850746    2.01138991301494    0.94603946578094
H          -3.26382261831795    2.40910437726001    0.27833001154176
H          -9.40236566661640   -4.75409227582031    1.98140489414710
H         -11.57097449103258   -6.32083417735746    2.47289151146856
H         -13.58564794204147   -4.55849745662957    2.98831257433967
