26
0 1
C           1.06863137388326    0.19219250354649    0.07836718841437
C           2.55124561037605    0.28731053123932    0.06595874421680
S           3.34831848956670    1.81084502015880    0.09233309389085
C           4.91499535529252    1.03237175005610    0.06335857740306
C           4.77685574540982   -0.34878103555272    0.03377690497061
C           3.44768931638153   -0.75809416756330    0.03610609717523
N           5.98741601959073    1.83272560842056    0.08233543175700
N           7.13857390688791    1.26330396095946    0.06379572400174
C           8.20430435616645    2.09670548256473    0.08666177402380
N           9.46501049812124    1.59374855623738    0.11433456348886
N          10.26356371985705    2.58220649165891    0.12900978096123
N           8.23274657475155    3.43466089290193    0.08271129484537
N           9.52138245127297    3.68630397471560    0.10907598205608
C          10.02483723687677    4.96735003374536    0.11658686223065
C           9.36398944239539    6.16588309912354    0.07864525846441
C          10.38079939048372    7.14626000631483    0.11292243544082
C          11.56183122197773    6.46850959274448    0.16825758774560
O          11.35297848419660    5.14186084855908    0.17077648116412
H           0.62131715521413    1.18181688099907    0.09953959216774
H           0.73274184611421   -0.36513092129360    0.95280707161177
H           0.71523737633572   -0.33586761979994   -0.80716549359679
H           5.63393318514846   -0.99723237986063    0.01417132682402
H           3.13627189023472   -1.78788152830974    0.01722027283284
H           8.30473201073523    6.30515721972996    0.03302310928566
H          10.24707867050743    8.20782411326853    0.09824171491477
H          12.57946867222217    6.80133108543616    0.20881862370951
