16
0 1
F           0.98479917144441   -0.12131541836315   -0.05539149027843
C           2.30390396421915    0.02077698692244   -0.05076690815974
S           3.00160043196886    1.58975427808376   -0.04650007346668
C           4.59540995283576    0.85790695199854   -0.04181035441171
C           4.51992542651544   -0.52626043641343   -0.04381839359267
C           3.21093050928617   -1.00608903112592   -0.04897133657449
N           5.63336387851847    1.70630386881336   -0.03715580875695
N           6.81012434599409    1.20419610489884   -0.03294620458521
C           7.82077867382328    2.11361187903300   -0.02751009855668
N           7.73669801045921    3.47433782933679   -0.02284271213459
N           8.92717574938453    3.91737879669242   -0.01775675993830
N           9.09765303731015    1.72617056612687   -0.02498844014535
N           9.73501454425560    2.87082568012018   -0.01901039472940
H          10.74298016862356    2.93677928095382   -0.01565403633646
H           5.40441398210218   -1.13691200389016   -0.04160553424830
H           2.92903815325913   -2.04289533318737   -0.05125145408506
