32
0 1
C          -1.00654991817785   -1.11523997824534   -0.07943444286816
C           0.20304242653115   -1.34856700254449   -0.57455765550611
S           1.33213625667975   -0.11039086477019   -1.11671870107834
C           0.50404678395482    1.27322963719057   -0.41119614204078
C          -0.73538170259314    1.25992782480558    0.06665722257449
N          -1.57737406254655    0.14587196452947    0.10145199669193
C          -2.89543176410375    0.27550140751810    0.42435828112812
S          -3.88290045638944   -1.11493683409661    0.76980437666211
C          -5.28210183360162   -0.08940082300914    1.05382680265957
C          -4.94878993177988    1.24793847047431    0.87223536480704
C          -3.62739599807437    1.45467875896175    0.51848242305609
N          -6.41437020108277   -0.70330659888122    1.37669821067958
N          -7.44496970895079    0.04409580956637    1.60301871235145
C          -8.58270389123740   -0.61670620680494    1.90236506581818
N          -9.71040684640592    0.07110712597008    2.21630894610760
N         -10.62565566357573   -0.78756116672603    2.43244426518600
N          -8.81630609490057   -1.93490692331042    1.92616518855486
N         -10.08326687155823   -1.98691845065695    2.25504312383229
C         -10.78370865853599   -3.15773271318483    2.40062045293482
C         -12.10594882665028   -3.28987599035406    2.71973052555593
C         -12.48812722367181   -4.64350025037353    2.78433310625575
C         -11.46147171368503   -5.49474021370462    2.51686089419587
S          -9.98933382210140   -4.67386725579793    2.17590388669572
H          -1.63160159455910   -1.93801666348141    0.23406961127119
H           0.58648835225943   -2.34852884208239   -0.66924381525238
H           1.10807694468980    2.16272832193281   -0.37446273677825
H          -1.14445189886777    2.15460981861373    0.50942501296657
H          -5.68536191053774    2.02092298310173    0.99750583693212
H          -3.22501843173730    2.42980756722558    0.31189772673269
H         -12.75261892267164   -2.45063907870133    2.89439805585100
H         -13.48520696289134   -4.96857551660347    3.01946194776596
H         -11.47941585322762   -6.56604831656118    2.49871645625710
