23
0 1
F           1.13712496506327    0.23619003478949    0.03307978590944
C           2.46102573095461    0.33605680450884    0.05801792361549
S           3.20869509606476    1.88346292629628    0.03187547183408
C           4.77742067102758    1.10349737509259    0.08672025230783
C           4.65899019460113   -0.27631684542163    0.12141600819942
C           3.33524410953687   -0.71640427641003    0.10433426675573
N           5.84913183730700    1.91261504895592    0.08024409588943
N           6.99855276121193    1.34769814255112    0.12502157123845
C           8.06598869758046    2.17861568348536    0.12047829480338
N           9.32389174405202    1.67396824073979    0.11462761822025
N          10.12438486401756    2.66263868936039    0.11806649734103
N           8.09842131762423    3.51727221377211    0.12983090032143
N           9.38029465609853    3.76532942043937    0.12882525420669
C           9.91515098256438    5.02919180553106    0.13614793942120
C          11.24320538897756    5.35538468282550    0.12077617725173
C          11.43029657907115    6.74980622065017    0.13217388170842
C          10.25663699395664    7.43884138789104    0.15567065046890
S           8.88051394106430    6.41101667195741    0.16449013396041
H           5.52494593481030   -0.91198617512822    0.15543404754292
H           3.02267325016593   -1.74417718534478    0.12435697291574
H          12.02647479091955    4.62112321874121    0.10203918419942
H          12.39645503540788    7.21998093300476    0.12301433654479
H          10.11654045792218    8.50128498171227    0.16855873534383
