24
0 1
N           1.34656014658097    0.13032884207870   -0.04926289190697
C           2.48795389381459    0.24791016250248   -0.02786817245187
C           3.87949614911681    0.37184533276174   -0.00475286017617
S           4.64610535236627    1.92032035788546   -0.00109761028474
C           6.21081220209817    1.15666032614268    0.03089319088290
C           6.10679015543212   -0.22987752475362    0.03808652934288
C           4.79189173793287   -0.67067184577772    0.01798384989869
N           7.27962391820174    1.97402684364363    0.04507423059562
N           8.42656756897921    1.40413612768513    0.06619977570201
C           9.50275713663204    2.22079993602411    0.08074381943402
N          10.75384974674238    1.69544373101607    0.10573204320167
N          11.56917377804820    2.66736349385781    0.11425430450408
N           9.55628153005151    3.55958736556538    0.07363876212650
N          10.84578991586591    3.78693107524845    0.09479170612214
C          11.38208047798868    5.05419224234306    0.09631678092891
C          10.75739030368948    6.27333269716755    0.07558698786937
C          11.80427082786016    7.22104613235660    0.08930369325673
C          12.96526676133185    6.50612134680821    0.11691931120062
O          12.71585478185917    5.18801746014493    0.12133320528648
H           6.97816289888661   -0.85893833384604    0.05762181282031
H           4.49071652127582   -1.70339033577230    0.01950748691330
H           9.70230270788720    6.44690994637279    0.05383354844047
H          11.70358600158256    8.28622548751520    0.07984285747050
H          13.99337548577583    6.80772913302958    0.13485763882269
