26
0 1
C           1.16808641408772    0.19509436896463   -0.06923315076460
C           2.64863686154965    0.31618659288756   -0.06221067692121
S           3.42116005655151    1.85318903465845   -0.06532766449999
C           5.00004295843754    1.10019089216761   -0.05283931316327
C           4.88470312956355   -0.28315508405237   -0.04695263760989
C           3.56233846540938   -0.71402988987853   -0.05221881470276
N           6.06520293059720    1.91279000748831   -0.05059890216284
N           7.21776472246167    1.34454318975684   -0.04099870937215
C           8.28790129513002    2.16988011673036   -0.03600903807771
N           9.54217290794366    1.65516244331661   -0.03442544604450
N          10.35305529856500    2.63692545208054   -0.02649758028065
N           8.33063723205193    3.50953628611098   -0.02841348659845
N           9.62377142432942    3.74463623428699   -0.02281429234140
C          10.14576535227453    5.01482778045719   -0.01360260742670
C          11.43816596378436    5.48485963434180   -0.00485542130514
N          11.41471871177177    6.83650293937878    0.00189827805523
C          10.15774139604709    7.18756982739536   -0.00212512363328
N           9.33333392164504    6.11422221743435   -0.01174172457025
H           8.32574564445573    6.07589085515763   -0.01675755008181
H           0.70181565828504    1.17608152799926   -0.08054286651007
H           0.82889932621901   -0.34627047352263    0.81396401295013
H           0.83848563854352   -0.36230187930314   -0.94601652133267
H           5.75213301086865   -0.91780992562365   -0.03916101426695
H           3.26808148015850   -1.74900083144416   -0.04891485116746
H          12.35211193249921    4.92903026072944   -0.00326018875052
H           9.80793826676920    8.19972842248187    0.00151529057893
