25
0 1
C          -0.81579435105245   -1.03231642144698   -0.13914289641510
C           0.39045249648497   -1.26666871889095   -0.64177503741098
S           1.51302197068513   -0.03046546808557   -1.20069364604322
C           0.68307160187197    1.35824153361574   -0.51031966507104
C          -0.55223372743386    1.34572158216198   -0.02215292544746
N          -1.38898099994355    0.22880216972643    0.03600788496085
C          -2.70622804177069    0.35707366891060    0.36127630092114
S          -3.69113513730495   -1.03325597026682    0.70966675358419
C          -5.09352168198291   -0.00947646237724    0.98814551590857
C          -4.76111597432535    1.32812433711945    0.80487094731838
C          -3.43964017751183    1.53619546945719    0.45416753645565
N          -6.22158154754531   -0.62690037107492    1.31457702613736
N          -7.26285173603475    0.10649900142809    1.52805802835779
C          -8.39100697108709   -0.58099614434571    1.82541231775729
N          -8.59490369524374   -1.93021238819705    1.79687219637809
N          -9.81105111263686   -2.12744238698897    2.11483158945438
N          -9.51574931066080    0.05299255720603    2.16873102268626
N         -10.35399756346155   -0.94484992726723    2.33862338238564
H         -11.31752617184708   -0.80816345729820    2.60749011399413
H          -1.43657681663399   -1.85422575009029    0.18471257549562
H           0.77514144038122   -2.26650662888927   -0.73312845262462
H           1.28160615191516    2.25156846896234   -0.49491321402925
H          -0.96262226996045    2.24474728265643    0.40908151705477
H          -5.49822367442869    2.10078086055478    0.92846469283476
H          -3.03777270047251    2.51160316341991    0.24897643535672
