24
0 1
N           1.19952395066885    0.06832257491489   -0.03311720291949
C           2.34049608210902    0.19286855015249   -0.01934483342678
C           3.73156716061765    0.32226425472879   -0.00431370992732
S           4.49422050574818    1.87299844609875   -0.00459192173993
C           6.06084915557745    1.11343463432170    0.01763210536962
C           5.96084275906468   -0.27320769305770    0.02474523604618
C           4.64692488608686   -0.71758804903929    0.01240145650146
N           7.12764378278797    1.93381985529630    0.02636599832544
N           8.27640390618113    1.36691206195126    0.03947347913606
C           9.34880018570160    2.18821676559209    0.04950753595973
N          10.60144272109543    1.67075293438314    0.06437984331141
N          11.41135790121388    2.65035815641065    0.07108132493712
N           9.39521445381956    3.52742777241607    0.04698426023064
N          10.67803230972863    3.76162191152470    0.06042709197029
C          11.23058378427123    5.01752208301237    0.06350926781143
C          12.56461400662345    5.32065124798777    0.07713691896839
C          12.77542457028211    6.71128898852401    0.07626056111226
C          11.61322442296753    7.42049206226095    0.06218434071618
S          10.21980551795415    6.41735414786832    0.04956001670643
H           6.83362082852143   -0.90039957724427    0.03867840140127
H           4.34882248436709   -1.75121059067769    0.01519684474400
H          13.33527514234312    4.57294490287471    0.08710363033000
H          13.74935665229390    7.16506468410850    0.08568011402925
H          11.49178282997525    8.48533987559139    0.05847924040638
