17
0 1
F           1.38951491691054    0.04433493854114   -0.06279223903998
C           2.70030634478639    0.00145359629262   -0.06473479368669
S           3.65193207311122    1.46389427501698   -0.06693885368464
C           5.03354255578691    0.33747787819686   -0.06820683204169
N           4.66708003692901   -0.90413449597984   -0.06639425226546
N           3.36825708336522   -1.09560561810252   -0.06437604226587
N           6.25954731859799    0.89183605829964   -0.06880854643126
N           7.26170198192191    0.09045098805578   -0.07211569010644
C           8.48341570052544    0.66082854654675   -0.07102633242311
C           8.88823648325037    2.03710338699938   -0.06817248790300
C          10.24508049267607    2.04380471333546   -0.06835291044511
C           9.65491153819344   -0.09864982584598   -0.07275165543071
N          10.69398410171860    0.74684335878510   -0.07097567569256
H          11.66485825649951    0.47647304147428   -0.07143761352243
H           8.22567541345806    2.87757468395871   -0.06657162256557
H          10.93566988884606    2.86400857207489   -0.06684088136813
H           9.76309581342328   -1.16420409764926   -0.07473357112734
