24
0 1
F           1.32489509045155    0.08312708162853    0.03172088265396
C           2.63564691659622    0.04006839593909    0.03032996248526
S           3.58741791498774    1.50273945520005    0.01914461089577
C           4.96943970110097    0.37562199886155    0.02527645563672
N           4.60210798269665   -0.86610496318873    0.03596796097219
N           3.30357424362158   -1.05690534918893    0.03897170788467
N           6.19548171890155    0.92737233095895    0.02581159344650
N           7.19546471616064    0.12018014447627    0.02082446535499
C           8.41812809491239    0.68285825927859    0.02820731609156
C           8.83336903055200    2.05899556451395    0.03435459058503
C          10.18662152195990    2.05917652766530    0.04107574792242
C           9.58346230962455   -0.08001687499262    0.03182947111475
N          10.64282659640106    0.75203884767395    0.04037807697126
C          11.97031666112908    0.36884013554241    0.04980919804103
C          13.08306817079661    1.16354276536965    0.05802035074150
C          14.27857937971093    0.41529615891185    0.06823165392491
C          14.06499840393435   -0.92435412807109    0.06770061302783
S          12.39273190901815   -1.31859271582495    0.05456359674460
H           8.17783548460332    2.90533354944441    0.03264505567910
H          10.87327010825298    2.88104944054982    0.04645697981705
H           9.68466407843018   -1.14682644323558    0.03028740188679
H          13.06181402505392    2.23719735679064    0.05681535516199
H          15.25569101460315    0.86259082215118    0.07578758299245
H          14.78709492650055   -1.71581836045430    0.07428936996767
