25
0 1
N           1.60186068029811    0.25255232316791    0.04537783047586
C           2.74540049627456    0.17230247678725    0.04748477296378
C           4.14473506784584    0.10731403665756    0.04983658688893
S           5.12896840879697    1.55631168669161    0.03182230018461
C           6.49919940186181    0.43021725697535    0.04725095900458
N           6.12202711066027   -0.81669898150400    0.06470714359443
N           4.83660971279578   -0.99448729666319    0.06576865440954
N           7.73009507321641    0.97074624652436    0.04748849481383
N           8.71715559591752    0.14580413978741    0.04466907994090
C           9.95017972735068    0.68145479643141    0.05229123227058
C          10.39779007756774    2.04819697092487    0.05575415570058
C          11.75041431768743    2.01643991485501    0.06077707481743
C          11.09681926341841   -0.11232693022781    0.05627821391522
N          12.17213526157976    0.69818995244794    0.06202685324898
C          13.49394838649113    0.29903790631001    0.06870930028374
C          14.06318936189041   -0.94640319798156    0.07348497769778
C          15.46064029494048   -0.72447435137195    0.07984447751128
C          15.63268753650983    0.62426248655416    0.07843935009270
O          14.44280055040291    1.25538391377689    0.07172823637013
H           9.76266538135795    2.90994758475854    0.05296322118346
H          12.47056692822041    2.81019640018222    0.06361688079569
H          11.16903197332210   -1.18002029107302    0.05670262542102
H          13.56141623816792   -1.89080058445548    0.07276703761297
H          16.22580341424776   -1.47229641921017    0.08482284903838
H          16.50938973917789    1.23955995965459    0.08157769176363
