18
0 1
N           1.59434041032689    0.21259176519050    0.04313701169840
C           2.73817988774300    0.13693932829357    0.03868924349693
C           4.13769138952391    0.07619516461773    0.03226675737722
S           5.11902911051421    1.52685445165770    0.03544518568371
C           6.49115463549107    0.40460224075539    0.02406727624039
N           6.11733426276404   -0.84350353216092    0.01991249641282
N           4.83216914252566   -1.02436672623372    0.02424339537769
N           7.71910649361225    0.95200538721357    0.02437810753746
N           8.71464593909957    0.13980422026760    0.01077840622631
C           9.94011177654079    0.69771752189297    0.01435447241006
C          10.35608363343226    2.07130348627675    0.02842791372867
C          11.71256584006637    2.06696033769861    0.02460135669728
C          11.10661567291989   -0.07125895258265    0.00284350224887
N          12.15112533165180    0.76608052988551    0.00943297769377
H          13.12000003329277    0.48821117896283    0.00402738618973
H           9.70012624032415    2.91692383271964    0.03902177196720
H          12.40915862886111    2.88198514295626    0.03133489214352
H          11.20679157131025   -1.13767537741135   -0.00865215313004
