18
0 1
F           1.41675088548103    0.16729294136953   -0.10558156568690
C           2.72467230088362    0.11658685124170   -0.10686860637974
S           3.68633202920228    1.57089188498596   -0.10977537054080
C           5.05659368804287    0.43747278305153   -0.10972171797259
N           4.68375253213683   -0.80348861541097   -0.10762038462188
N           3.38727611547537   -0.98609699739290   -0.10605635516308
N           6.29167626988964    0.97621303530294   -0.10994672437109
N           7.28104170439740    0.16510739626438   -0.11138852448770
C           8.51082377486627    0.73081547556965   -0.10966495917545
C           8.91486400392777    2.11403578686645   -0.10874355708223
C          10.26573480375530    2.13375853883883   -0.10657891031738
C           9.66873936603023   -0.02942103972580   -0.10797443284032
N          10.72697676433835    0.82387992842086   -0.10597650522788
C          12.00739868885344    0.47252605480807   -0.10345960658646
N          13.11317582043940    0.18018871635569   -0.10220408640214
H           8.24848524673254    2.95188833129721   -0.10992330048180
H          10.96060993000138    2.95068552249352   -0.10539466550856
H           9.78791607554628   -1.09441659433665   -0.10771072715399
