20
0 1
N           1.51753050584622    0.25919281645474    0.47250236373445
C           2.64218873597775    0.17521195406422    0.26002194415988
C           4.01765622613735    0.09731151495622    0.03228188303723
S           5.17347984622423    0.88022845329832    1.12777581122743
C           6.40644828236627    0.18501948797542    0.05340277857603
N           5.88553776440170   -0.48455663301462   -0.95236740702905
N           4.58817884950958   -0.52115579807364   -0.94859778743954
N           7.65188771805602    0.59650054684179    0.16080233539465
N           8.70580405393664   -0.08470742158373    0.23873184942818
C           9.88871476640198    0.54503180154066    0.10513927089342
C          10.20514723033808    1.90161423981573   -0.21385615792805
C          11.56198750967172    1.99031865519491   -0.24060007809738
C          11.11077469201187   -0.12348964758405    0.25927765809865
N          12.08936668310017    0.75918419223733    0.05224184112837
N          13.44350581805539    0.47963482861987    0.01678726147041
H           9.49752800109905    2.68478619832669   -0.39293387159331
H          12.20283527245357    2.82532869651948   -0.44360502929629
H          11.29017229044208   -1.15336278624245    0.49365228544419
H          13.64683959784622   -0.39356967188236    0.49181646742318
H          13.98688615612342    1.24224857253544    0.40957658136781
