21
0 1
N           1.57867245803177    0.24467475810962   -0.46026223097828
C           2.70215954926420    0.17151103445790   -0.23901779428816
C           4.07615176219768    0.10271526343590    0.00107795700950
S           5.23709357539824    0.88056670355884   -1.09359483402803
C           6.46421582567527    0.19634123141304   -0.00701336706071
N           5.93979336381921   -0.46553700026934    1.00163914535938
N           4.64212276464922   -0.50594327009580    0.99019762957573
N           7.71214558013604    0.60559467351599   -0.10825663361099
N           8.76031979613689   -0.07400232574951   -0.22730213706745
C           9.95100980718309    0.54683067389454   -0.09696736496591
C          10.28451366968427    1.89470693532583    0.25057495577667
C          11.64064428861960    1.96333021121596    0.26361143991577
C          11.16208117139272   -0.12690440866988   -0.27447717193142
N          12.16069000513619    0.73355281645085   -0.05351045256394
C          13.56432532269531    0.44612240788727   -0.14268541366070
H           9.58658977521781    2.67977951567339    0.45812659544263
H          12.28870021033253    2.79089052052771    0.47627860022804
H          11.32398406744989   -1.15304822576272   -0.53737157997770
H          13.71337708351839   -0.62802961646244   -0.23469302642718
H          14.07777827129421    0.80193074550613    0.75185656138787
H          14.00219165216734    0.94003735603660   -1.01353087813526
