26
0 1
C          -0.85566193385185    1.24607325087483   -0.19657318377190
C           0.44110765995241    1.15089614933249   -0.45510020112699
S           1.42666966401159   -0.29537153349420   -0.22784825798864
C           0.14325469383283   -1.40209537250222    0.24930029958209
C          -1.12693420100785   -1.06889270943764    0.44552948186032
N          -1.65819114911534    0.21074870241973    0.29690191521725
C          -2.95249582304787    0.47674800716627    0.58566254800763
S          -4.06927871818841   -0.72234356475964    1.23247256607522
C          -5.25614786029623    0.62503121556456    1.22527142265287
N          -4.74559944028379    1.72614651172934    0.76669022078061
N          -3.49436002483002    1.65236297820013    0.40399590377947
N          -6.52011854062041    0.31291378390200    1.48788752345254
N          -7.34417007573115    1.19944985310185    1.89324372656675
C          -8.64564405767055    0.81606585430563    1.95540662239629
C          -9.27868620631692   -0.40860847324711    1.57402954846705
C         -10.60966782471623   -0.27245711347364    1.82998661453118
C          -9.64448155090557    1.66093748298502    2.43501684861201
N         -10.78713897121723    0.97332987691469    2.34174564608740
F         -12.00531570157533    1.46464062259244    2.71545860067232
H          -1.40044643812917    2.16392809036978   -0.35680400073935
H           0.99806775813005    1.98591662468870   -0.84046281517521
H           0.48058855930258   -2.41552240051216    0.37317045940272
H          -1.84849716936144   -1.81823016807235    0.73738682213866
H          -8.78225545425744   -1.26497502654089    1.16621425645089
H         -11.43478338554912   -0.94177331853604    1.69545288327320
H          -9.58833380855784    2.66034067642835    2.81197454879529
