19
0 1
N           1.57354209568495    0.13813613539429   -0.07721470899382
C           2.71716334647582    0.06752018796867   -0.07610615568677
C           4.11803687338457    0.01160973319748   -0.07578546636780
S           5.09534596361626    1.46175326743454   -0.08652347632128
C           6.46744423830624    0.34249043489426   -0.07821455573554
N           6.09707611204984   -0.90648939306424   -0.06790234328238
N           4.81424850734894   -1.08919342474029   -0.06666048232868
N           7.70004838362401    0.88565792669873   -0.07788380774729
N           8.68810483745277    0.07105061497575   -0.08057172470124
C           9.91977288567503    0.62824626617793   -0.07570862441978
C          10.33526914199422    2.00833464486633   -0.07337819705112
C          11.68611711738186    2.01632782449692   -0.06991320674466
C          11.07222218584449   -0.14198998647450   -0.07313635869595
N          12.13635725947159    0.70231283988677   -0.06921082382137
C          13.41442455888909    0.34069243963903   -0.06490497945608
N          14.51758076791488    0.03893861367485   -0.06230343213627
H           9.67649668808628    2.85227290277899   -0.07510070373135
H          12.38805115606604    2.82719582149406   -0.06783296901177
H          11.18171788073313   -1.20810684929961   -0.07287798376685
