20
0 1
C           1.39554162549274    0.14634265674536    0.04765201809750
C           2.87501399021430    0.11642515878763    0.04346980920772
S           3.85159499041911    1.56860544166437    0.04391338532827
C           5.23893390983971    0.46044840232379    0.03748401958843
N           4.87467796460698   -0.78276653604484    0.03616459383168
N           3.57657754318928   -0.96734376788852    0.03941614617049
N           6.46425702562231    1.02052421180311    0.03676498363009
N           7.46723714684787    0.22240070829024    0.02770809653842
C           8.68997986816045    0.80073588564015    0.02844561674531
C           9.08531310003385    2.17825707594730    0.03589823587908
C          10.44283780880608    2.19492287536032    0.03217320722915
C           9.86343715540064    0.04978357104419    0.02057590778767
N          10.90023508387288    0.90244939425431    0.02308627781620
H          11.87207176917053    0.63692777642512    0.01888786340489
H           1.03401191898870    1.17041170825932    0.04772999994375
H           1.02002351071682   -0.37156785419528    0.92903696057188
H           1.01499985827253   -0.37345609960887   -0.83043402123361
H           8.41764711772336    3.01479130685303    0.04267020830864
H          11.12751760370956    3.02023663727124    0.03517011694882
H           9.98002100891234   -1.01475855293197    0.01397657420562
