33
0 1
C          -0.90268521306452    1.17544655793467   -0.29166160028879
C           0.39761348695195    1.07906535556948   -0.53081380493707
S           1.40672709486021   -0.31781148878101   -0.15101188357559
C           0.13830748794317   -1.39258660942973    0.43288286881775
C          -1.13893330019251   -1.06398813211097    0.58505310167856
N          -1.69134121225593    0.18236670850942    0.29951516585946
C          -2.99266758781356    0.45668110360913    0.55393277711641
S          -4.09189715289173   -0.68576730189434    1.32660080808971
C          -5.29855753900401    0.63524120986172    1.17885801095253
N          -4.80662030344646    1.68871498780331    0.60334563213664
N          -3.55194827039491    1.59467512274603    0.24771147028621
N          -6.56056747233744    0.33921545724696    1.46559278598095
N          -7.38333336778174    1.24411632088128    1.83162695315406
C          -8.68514600473616    0.88220219067665    1.90782116843521
C          -9.34716894920549   -0.34121675837875    1.55579935652206
C         -10.66481550750750   -0.16521531559688    1.81790143455675
C          -9.67002640929384    1.74469988217546    2.36894766406732
N         -10.86192029943532    1.10779992745034    2.31515746696267
C         -12.07705985632471    1.64078877005315    2.69525531671608
C         -13.29369385873615    1.02111087974450    2.75897268106649
C         -14.31842341804130    1.88772902020312    3.19434541583463
C         -13.87613489216033    3.14271709612507    3.45441917598393
S         -12.18747237048819    3.30926840148896    3.17412681245868
H          -1.46207882338828    2.06202915397833   -0.54817014847531
H           0.94308780179499    1.88038228141250   -0.99581837620971
H           0.49289680670581   -2.38083199276380    0.66401588947810
H          -1.84930140668811   -1.79180383886434    0.94977973902468
H          -8.87176836001785   -1.21618122562395    1.16204308206950
H         -11.48697477107455   -0.83906962570519    1.68661907782433
H          -9.57220258125798    2.75096635411981    2.72343586771459
H         -13.46063226728632   -0.01083729454521    2.51349414303928
H         -15.34229913007540    1.58152362734202    3.30887162368276
H         -14.43365235335632    3.99085917476107    3.79685032397851
