19
0 1
F           1.43249761834098    0.15372221339362    0.41469191169304
C           2.72901119431756    0.08645445490657    0.20695739358377
S           3.84677806425440    1.02031506235879    1.19362325277029
C           5.08984384822765    0.22505706132579    0.18793338524076
N           4.58299693167742   -0.56524481491908   -0.71454243691073
N           3.26696268665070   -0.63294855703032   -0.69948886165679
N           6.33291477034671    0.68100028368421    0.25026905194102
N           7.37539967726241   -0.03196320330508    0.28559660155403
C           8.56486583209308    0.58176557675100    0.12718585294811
C           8.89843024566168    1.94050460300103   -0.16387514444636
C          10.25534780912822    2.00433406958051   -0.23296091262653
C           9.77735445104196   -0.11341806624152    0.22271960406202
N          10.76709892474160    0.75554963614654    0.00768338491825
N          12.11503038367645    0.45204262577565   -0.07889630739685
H           8.20054216264706    2.74139139144043   -0.29608306661759
H          10.90688218743026    2.83186723088454   -0.43262435359925
H           9.94323249506750   -1.15313259882546    0.42087655495847
H          12.30645720344947   -0.45524085181395    0.33384904982993
H          12.68230351398481    1.17359388288690    0.35713503975462
