27
0 1
C          -0.83938909766131    1.29240384681541    0.06607997438330
C           0.45138751756112    1.18199673091370   -0.21877944221850
S           1.34433773354803   -0.33004278056961   -0.36190197953796
C           0.02156555104561   -1.43814105209487   -0.02070221136849
C          -1.23098895392467   -1.08716463304814    0.24813291992358
N          -1.70896061553247    0.22139132915254    0.30358342756099
C          -3.00278589263915    0.48692279537591    0.58418224006686
S          -4.19992008781040   -0.74806387176228    0.93194407816634
C          -5.33230652341511    0.63633042447225    1.11905828245208
N          -4.74571680565706    1.77295239710337    0.91387703096341
N          -3.48213055484921    1.70963596734713    0.62025520158564
N          -6.59777962469376    0.32345929632050    1.39503179472595
N          -7.43177978032417    1.27508981566525    1.61844049330689
C          -8.70648173043578    0.87362469232247    1.86312311327823
C          -9.27236975936178   -0.44921501854215    1.93608352385637
C         -10.58685729905661   -0.30837678227751    2.21645467562608
C          -9.73234947488582    1.76545238913354    2.10733784936355
N         -10.87333554469906    1.04512610402538    2.32015405826523
C         -12.07030333436644    1.54685089227076    2.58462848732884
N         -13.10980141913556    1.96884632928655    2.81369403652146
H          -1.32400646610677    2.25445927419911    0.13752994314606
H           1.06205540636450    2.05080656397235   -0.38833222682783
H           0.31540700049976   -2.47251502437999   -0.04728426976943
H          -1.97824513245831   -1.84252883538024    0.44594152679785
H          -8.72895272541008   -1.36082590402678    1.79429888312150
H         -11.36242490752752   -1.03628932407304    2.35639938409974
H          -9.71903747906505    2.83631437778790    2.13699920519212
