17
0 1
F           1.47494520012576    0.13224037195395   -0.00241577293993
C           2.78412884902936    0.08847881132029   -0.00283189420470
S           3.73717483555375    1.54932114373083   -0.00753771126157
C           5.11613912017137    0.42244255690795   -0.00472628886195
N           4.74940168405751   -0.81947636262765   -0.00030575525919
N           3.45233419402231   -1.00968087053675    0.00084412952000
N           6.34475668984495    0.97339040771390   -0.00518446764538
N           7.34381147505677    0.17180036539774   -0.00656746008244
C           8.56709177606654    0.74532261092779   -0.00522234306137
C           8.96376847989988    2.12243592866086   -0.00381258729486
C          10.32399838743382    2.14788061014459   -0.00309038535488
C           9.73796321920473   -0.01807914312555   -0.00521809795483
N          10.74529459308870    0.85335696080070   -0.00382571647227
F          12.06001209355519    0.49781185851293   -0.00318707575057
H           8.29727302333146    2.96005452626000   -0.00370245403259
H          11.02377363068124    2.95876398314133   -0.00214983880204
H           9.87165274887667   -1.07978375918294   -0.00580628054145
