25
0 1
N           1.59135582156064    0.29653757814977   -0.36401508235981
C           2.71819953316335    0.21071411301994   -0.16580529494260
C           4.09695536782192    0.12680951174109    0.04377089185865
S           5.23899944508430    0.95076577423381   -1.03275890996325
C           6.48285983075694    0.21082666686835   -0.00585450418871
N           5.97499580992860   -0.49665420614283    0.98057146870307
N           4.67825172397206   -0.53016533562570    0.99352004013533
N           7.73143599301798    0.61878774166869   -0.11375511083159
N           8.77204145484120   -0.08165500086894   -0.19757939279000
C           9.96759847587197    0.52884480036182   -0.05453970993820
C          10.30860885841735    1.87814670841350    0.28827236855493
C          11.66187242447334    1.94066595411503    0.32726743485271
C          11.16935549830252   -0.16024853972081   -0.20219995218514
N          12.18186367992738    0.69736348451972    0.02984394764611
C          13.53431897119067    0.41131397199360   -0.00493167835347
C          14.63625605115746    1.23398622359184   -0.05093092160144
N          15.76354586347924    0.48536578447953   -0.06445634809509
C          15.38065914117617   -0.75727934038619   -0.02636733171712
N          14.02839344555076   -0.86832258509882    0.00888841523152
H          13.48923686186994   -1.71693025535014    0.05969931561259
H           9.61263533377098    2.66965823933821    0.47620485666201
H          12.31209600916580    2.76117327470954    0.55280755804485
H          11.30955468943633   -1.18718841477243   -0.47279244058938
H          14.68436294546824    2.30253348382973   -0.08514419987374
H          16.03760677059688   -1.60273963306788   -0.02451541987207
