21
0 1
C           1.40038492252022    0.12021677078825   -0.18727416861597
C           2.86725698858619    0.05389098443520   -0.02058190072994
S           3.96627317431730    1.03352869408648   -0.99401235915763
C           5.25425555968074    0.19995698346139   -0.10345995830199
N           4.79313485594780   -0.63228345456022    0.78466135895120
N           3.47948863434682   -0.69554779760560    0.82160664334939
N           6.49938279081577    0.65748997936849   -0.21733534361092
N           7.51747256216298   -0.08852109178595   -0.27172972422994
C           8.72824002971676    0.51602181586947   -0.16922799193131
C           9.10260902945719    1.85010989623312    0.14225443945772
N          10.40977460671446    1.96091348563606    0.18176827063216
C           9.94776687193061   -0.15577139427424   -0.32531279106460
N          10.89729274039282    0.75266574408223   -0.10717170148537
N          12.25911947051869    0.56655994480936   -0.20350548980337
H           1.04758446908159    1.14106778443840   -0.04762001595058
H           0.92983186429970   -0.53164427459417    0.54347712065975
H           1.12177575179847   -0.19948302306696   -1.19069168321822
H           8.46717164947708    2.68917110648582    0.33807153156166
H          10.15858706725326   -1.17627917492734   -0.56514594033745
H          12.60005915402591   -0.09945004879712    0.48577658672541
H          12.70804780695589    1.46860706991741   -0.07109688289991
