25
0 1
C          -0.83356086661137    1.25720291255130   -0.15570393690268
C           0.46410901361197    1.16297953029508   -0.41039410115410
S           1.43602578007977   -0.29862466979398   -0.24439243900483
C           0.14519581266877   -1.41083888834291    0.20014037114426
C          -1.12399745638098   -1.07707999640179    0.40146851511377
N          -1.64856646602661    0.20876354613964    0.28593127792886
C          -2.94423397722098    0.47259493461063    0.57007855667708
S          -4.07317911682416   -0.73722766797714    1.17360092914846
C          -5.25064057560078    0.61699372846025    1.19714540815280
N          -4.73048907565054    1.72781578558410    0.77366373563146
N          -3.47774147083408    1.65634019568783    0.41728212012955
N          -6.52020379241912    0.31010839379327    1.43943021254981
N          -7.33417136572791    1.19142111835509    1.87169268478374
C          -8.64323765252482    0.82577815558129    1.90785876460382
C          -9.32202839568167   -0.34826660785654    1.46831218485923
N         -10.60775084563051   -0.25021907234080    1.69369057553707
C          -9.65931980120938    1.63363229446261    2.41730186855648
N         -10.79728542306503    0.94489063555186    2.26519955378952
H         -11.73057704243764    1.22646440554230    2.52378304127867
H          -1.36888024058334    2.18632808335915   -0.27780177971661
H           1.03050498956395    2.01063920732501   -0.75219942388285
H           0.47658174232614   -2.42908495302556    0.29860340083140
H          -1.84932050049631   -1.83095954725520    0.67168602950243
H          -8.90060336637004   -1.21981228217873    1.01161412102947
H          -9.61450990695540    2.60940075787339    2.85396832941336
