26
0 1
C           1.31893140027590    0.35329516348077   -0.06794318743801
C           2.78394919413409    0.25467602282479    0.09597426961891
S           3.90603105445105    1.18132717274228   -0.90199674137347
C           5.17285663173447    0.33548079930735    0.00601510621799
N           4.69164463045585   -0.46280253269586    0.91516083258607
N           3.37824894805403   -0.49061661283274    0.95562176083511
N           6.43184555318592    0.75118624709177   -0.12360927693582
N           7.42134258365015   -0.03604795277629   -0.11681250207667
C           8.65267628572278    0.53017704586040   -0.04003871710012
C           9.07478646886739    1.87884484762826    0.15860992362641
N          10.37746151004453    1.95402096308112    0.19872124813806
C           9.84353233165134   -0.18995432544194   -0.11277657066387
N          10.83891363171550    0.69899264796107    0.03230159374935
C          12.19887855070433    0.46301659918447    0.03126170327508
C          13.18607403232250    1.39448287374880    0.18110708710550
C          14.47044386948370    0.81515651376172    0.13311950739912
C          14.43892360166920   -0.52943402860950   -0.05059828239059
S          12.83468797900848   -1.13778171811848   -0.17139484001853
H           0.98353789082135    1.37327005707801    0.11625780432415
H           0.83716211825170   -0.31977497239898    0.63599020331744
H           1.03481254777189    0.08276249777180   -1.08423239282960
H           8.46400473646964    2.75150234672013    0.27053073932667
H          10.01430459360699   -1.23714914326263   -0.25467920263693
H          12.98116440498934    2.43915818402239    0.31870540834947
H          15.37999973341451    1.37893720793244    0.23128619318617
H          15.26054571754336   -1.21320590406058   -0.12424166759203
