24
0 1
N           1.48998874548897    0.50307620008360   -0.44781592505730
C           2.61462720782316    0.40328135350866   -0.24540326321450
C           3.99217652527097    0.30176542653605   -0.03145803808639
S           5.14960321232971    1.08738612760235   -1.11915364944119
C           6.37727973658580    0.33808904900262   -0.08311543869487
N           5.85776953785209   -0.34112124348275    0.91647177716863
N           4.56121455783908   -0.34918788378880    0.93048504878817
N           7.63641575999702    0.71665668634997   -0.20342440880566
N           8.65270229713519   -0.01897866656129   -0.26446756124964
C           9.86810937770772    0.56664621598508   -0.15609527638712
C          10.26579841680789    1.91455543497988    0.10171463383197
N          11.56590753330030    2.01004612385046    0.14547477272546
C          11.07362302207991   -0.13012861910104   -0.25994221826495
N          12.04863863728068    0.77110188463668   -0.07210939792352
C          13.41217243250411    0.55389125216950   -0.07560715118208
C          14.44626457921204    1.42118502676115    0.14416053528534
C          15.61914451504138    0.64045105695698    0.01692213677744
C          15.20802329085749   -0.62515586502870   -0.26714197225523
O          13.86346709561782   -0.68898615620251   -0.32590503990430
H           9.64035777236082    2.77195836133798    0.24602082345402
H          11.26844063611795   -1.16617405984447   -0.44331217795371
H          14.36189599863804    2.46375347435885    0.36469770577825
H          16.62802095999628    0.98011428363695    0.12389179982790
H          15.74558815215449   -1.53493546374708   -0.44329771521629
