17
0 1
N           1.46070720123867    0.30535056633225   -0.07143982072850
C           2.60386572945635    0.22914802926444   -0.07355478715201
C           4.00482818143782    0.16627285166067   -0.07776302435227
S           4.98973127355915    1.61044395525700   -0.07987570163307
C           6.35452186378700    0.48403278670618   -0.08428184994368
N           5.97818870555940   -0.76327030852406   -0.08339725548333
N           4.69489474498105   -0.93892841399167   -0.07998174147512
N           7.59066793839427    1.02126618679873   -0.08490982685763
N           8.57389920476874    0.20452919190333   -0.09349857633885
C           9.80890577156927    0.76177023766883   -0.09162294005652
C          10.24938391649601    2.11829265253890   -0.08580507273173
N          11.55961845028895    2.17527338002776   -0.08761343217731
C          10.99212087482639    0.01036043403178   -0.09694759220405
N          11.95554711037968    0.92284813076776   -0.09382820873539
F          13.28022367941108    0.64968452461166   -0.09675352996160
H           9.65632816849686    3.00960421717741   -0.08132930525798
H          11.16526718534933   -1.04488842223099   -0.10182733491095
