17
0 1
F           1.47822496604665    0.11576876272869    0.03203877529773
C           2.78417054406555    0.05037337197311    0.03254900762177
S           3.76246853418137    1.49173808774350    0.02456619958867
C           5.11845783026795    0.34158195412443    0.03051681251656
N           4.73067853038992   -0.89497394195558    0.03784331927343
N           3.43407922916534   -1.06178709869977    0.03901469803463
N           6.36091399722956    0.86443673463158    0.02998022362091
N           7.33922288731895    0.04489652509866    0.02775976231888
C           8.57582305621475    0.60445741133346    0.02920377875530
C           9.01481194638429    1.97173458713190    0.02830405136180
N          10.31130508018673    2.04382121576992    0.02886228957363
C           9.75062095093423   -0.13363183424094    0.03053231421050
N          10.76407358951276    0.76619340989974    0.03060286251393
C          12.06581983332305    0.47897078267382    0.03196335835802
N          13.17685517966140    0.21264554758821    0.03275302213077
H           8.40979967923857    2.85554492172074    0.02669287105848
H           9.91262416587894   -1.19221043752144    0.03189665376502
