16
0 1
F           1.40422429111261    0.06561099520333    0.03209043745721
C           2.71114166710613    0.01097081125378    0.02742554443841
S           3.67731533939899    1.46196415184185    0.02992551220706
C           5.04352760571911    0.32378582010061    0.02091873581995
N           4.66677618747631   -0.91593172466237    0.01766456404537
N           3.37056408697163   -1.09439003141374    0.02134313953203
N           6.28044141814913    0.85969759324246    0.01971440996589
N           7.26689973997680    0.04874434242708    0.01200884605497
C           8.49936182996993    0.61521890149184    0.01174990632735
C           8.93136498975102    1.97387006043988    0.01725688016209
N          10.24161014272208    2.03942713390958    0.01422506921756
C           9.68669982110984   -0.12861043324842    0.00505952176776
N          10.64527139132521    0.78968570279722    0.00716039174835
F          11.97205080771847    0.52443279037638    0.00263333356398
H           8.33253832754741    2.86124737166054    0.02293524666223
H           9.86557235394537   -1.18281348542003   -0.00043153897021
