22
0 1
C           1.25588815192498    0.05950946805794   -0.02986028357308
C           2.73451853521803    0.01484425281444   -0.03660237408567
S           3.72724708843914    1.45493502718959   -0.03075207945455
C           5.10075882245545    0.33102981960191   -0.04393376492729
N           4.72268602799173   -0.90832111333309   -0.05076645729629
N           3.42374618904784   -1.07785174772637   -0.04679655105381
N           6.33478188422413    0.87305281220024   -0.04320439159210
N           7.32200503032290    0.05799374511005   -0.05412088696502
C           8.55612132753066    0.61466266864525   -0.05136814554179
C           9.01024371132827    1.96533904776786   -0.04201770939137
N          10.31821020911572    2.00797568827965   -0.04315962175705
C           9.73797885083197   -0.13403821091933   -0.05808026828869
N          10.74696293773861    0.73717921115304   -0.05253939906483
C          12.15424055345714    0.46229623291563   -0.05483958581468
H           0.90356802694082    1.08674099458444   -0.02460991536536
H           0.87713928500814   -0.45923452345179    0.84968429144208
H           0.86917865291116   -0.45326318583827   -0.90940409227404
H           8.42206130857980    2.86007383374683   -0.03537525195074
H           9.87518086781662   -1.19552680935180   -0.06565340707574
H          12.31506796747981   -0.61321280959415   -0.06493376666821
H          12.61593569235459    0.89539769728523    0.83365821689645
H          12.61621887928248    0.91214790086268   -0.93478455619821
