26
0 1
C          -0.80722937258783    1.28851238617939    0.06786021482212
C           0.48237817976458    1.16147912381651   -0.21536116036242
S           1.35393944028357   -0.36084878329899   -0.36185163427895
C           0.01891465244273   -1.45233534243239   -0.02586320586958
C          -1.22960707636584   -1.08646098588446    0.24226904347415
N          -1.69087921700094    0.22801254450296    0.29975600403366
C          -2.98051154934777    0.50844034715190    0.57969808185678
S          -4.19540138407545   -0.70974342640944    0.92037512652100
C          -5.30684705574213    0.68967452581618    1.11450527774563
N          -4.70293152492826    1.82004872096305    0.91379665625160
N          -3.44366222486846    1.73963589480861    0.61978202845310
N          -6.57661010724472    0.39675741771320    1.38411769059621
N          -7.39562110258044    1.35599899972347    1.62481911305055
C          -8.67701599531612    0.95962833763584    1.85923952535095
C          -9.27151236374132   -0.34430151024309    1.92525386145026
N         -10.54155375277392   -0.26972293898693    2.19198004251219
C          -9.72509345004450    1.82658469619056    2.11295585221748
N         -10.82667281259328    1.05007414164916    2.30519504346445
C         -12.05186357363635    1.48881931848096    2.57602756291493
N         -13.09880678052472    1.88819917204495    2.80528753903421
H          -1.27896825217929    2.25648342972635    0.14245243647418
H           1.10465717770693    2.02295511602597   -0.38052533342453
H           0.29973166872311   -2.49018484767319   -0.05394020715550
H          -1.98611201169554   -1.83231424635313    0.43754582267810
H          -8.78841402649674   -1.29048318338977    1.78895808969130
H          -9.75731748518243    2.89533109224452    2.16271652850188
