19
0 1
N           1.44682983711252    0.48575358083916    0.35754346237608
C           2.56788413558799    0.36995462391384    0.14440001482886
C           3.94151981248483    0.25328350569864   -0.08414187121267
S           5.11457841470796    1.10271754737306    0.93781384562430
C           6.32809328230629    0.29858266264852   -0.07539788037659
N           5.79368415784139   -0.43912290050333   -1.02366904317095
N           4.49649554945920   -0.45117283969542   -1.01490636298485
N           7.58490851807719    0.69214936955827    0.00195827723248
N           8.61362626462870   -0.01743870612435    0.12085939979603
C           9.81804601648228    0.57970375328794   -0.02925507575893
C          10.19158890895492    1.91120576169202   -0.35971639626951
N          11.49722510969026    2.02420609057619   -0.38297895667192
C          11.04078771707489   -0.09232426654687    0.12645528926566
N          11.98693396660234    0.81541125381357   -0.09526390580582
N          13.34526386079605    0.60974338949813   -0.11667373743402
H           9.55715219589962    2.74917086916914   -0.56390823593125
H          11.24939778429073   -1.11267946087589    0.36955536413200
H          13.69695794021930    0.25884496672532    0.77008218438155
H          13.79745652778213    1.48518079895258   -0.36471637201983
