16
0 1
F           1.32446409531409    0.13903978643538   -0.07144949092642
C           2.63252704169383    0.09241290727944   -0.07557418427610
S           3.59193511067681    1.54670661055193   -0.07780138562948
C           4.96406097085877    0.41507724267116   -0.08255060722149
N           4.59147920181105   -0.82703059501071   -0.08256379112901
N           3.29617892840828   -1.01139211753897   -0.07877056486280
N           6.19497692680138    0.96123440491926   -0.08760208294828
N           7.18826759826373    0.16065791861099   -0.08738847004382
C           8.42149773973413    0.71185684598429   -0.09387956363912
N           8.75021848691210    2.04975590889817   -0.09937326680939
C          10.03842514135578    2.11361778502683   -0.10396859289076
C           9.58573532206830   -0.05064351881354   -0.09543960150135
N          10.57284333181381    0.86108720224336   -0.10188515533695
F          11.90184190074698    0.56185596588844   -0.10554440528362
H          10.63208891997552    3.00506637910886   -0.10870056554556
H           9.74572928356542   -1.10755272625490   -0.09274827195585
