26
0 1
C           1.26633154584802    0.17287234026965    0.00302780955206
C           2.74569027555674    0.14924166843919   -0.00276491582403
S           3.72073324105295    1.59844110972504   -0.00569033231368
C           5.10746134270639    0.49295232338676   -0.01189993122788
N           4.74308918861423   -0.75248324123009   -0.01137331086912
N           3.44788025561837   -0.93770279478314   -0.00636170976701
N           6.33366902813271    1.05030410366773   -0.01732462542756
N           7.32694658278598    0.24518974303877   -0.02050716080698
C           8.56407130116374    0.77950520792969   -0.02685065708704
N           8.92973164510373    2.10989915866718   -0.02950687390332
C          10.21594959621737    2.12028821165270   -0.03576242523177
C           9.70975711053637   -0.00592660839693   -0.03192763044255
N          10.76073248334371    0.85267782011242   -0.03769800131344
C          12.10516201719235    0.53300721968769   -0.04439865452879
C          12.67367182560434   -0.70924155466669   -0.04659551300853
C          14.08312940370377   -0.65242651130123   -0.05400990369339
C          14.56202721403311    0.61669878422982   -0.05732892583552
S          13.30538064512518    1.78984465235213   -0.05147328127593
H           0.89998410212079    1.19490021387116    0.00621152671319
H           0.89487000838211   -0.35031666982173    0.88292687098130
H           0.88808182477537   -0.34717261534638   -0.87585224197075
H          10.82783182946643    3.00126649061730   -0.03922907497586
H           9.80601424795410   -1.07009685955496   -0.03183174838879
H          12.11647152179081   -1.62735400158013   -0.04310218910234
H          14.70979226982390   -1.52539724969485   -0.05675927694793
H          15.58149949334738    0.94585905872887   -0.06288782330435
