19
0 1
N           1.59841904453679    0.48315514361194    0.50979008159124
C           2.72061254714210    0.38732395345269    0.29051984669145
C           4.09403464361862    0.28915495135580    0.05457583141503
S           5.26593799516425    1.13999342451736    1.07793889557937
C           6.48221265572680    0.35025140749234    0.05595587456457
N           5.94703860003650   -0.38611986158857   -0.89659017127505
N           4.65101328554501   -0.40513149216079   -0.88330522347093
N           7.73248327952993    0.75090969608269    0.12862277046006
N           8.77342668081984    0.06061371720561    0.23204331643297
C           9.97041374359388    0.65451314813076    0.05589077389461
N          10.21901766158363    1.94969699447266   -0.31753535185860
C          11.50559826391973    2.05812861369197   -0.38414940664348
C          11.18482168277143   -0.01745306935155    0.21648467681683
N          12.13904191909023    0.88682169463029   -0.06135157370421
N          13.49979461468277    0.65839033920611   -0.13101045411773
H          12.03898426385919    2.94798812396581   -0.65292045104870
H          11.38619619268443   -1.03047535178826    0.49474890292716
H          13.77302372552358   -0.12016633801698    0.45991607615441
H          14.02319920017191    1.49660490509496    0.10113558559025
