26
0 1
C          -0.89310713902854    1.25726214742582   -0.15304402837788
C           0.40192903147568    1.14990745363789   -0.41920860761067
S           1.36152735995759   -0.31697190921480   -0.25219911523249
C           0.06673056210059   -1.41686869260337    0.20116470002011
C          -1.19856563527004   -1.07231541559930    0.41305632831847
N          -1.71174080623530    0.21844853984863    0.30276150191357
C          -3.00001223027667    0.49258212512936    0.60316330121537
S          -4.13847000736852   -0.70422725568365    1.20832779241215
C          -5.29957173137419    0.66381825371776    1.24976749472417
N          -4.76400032084033    1.77373059092582    0.82880883499726
N          -3.52187130599720    1.68777561446970    0.46039869333864
N          -6.56477162379211    0.36881414644106    1.50094187874541
N          -7.38321694339330    1.26520350765963    1.89422550837993
C          -8.69039171939731    0.91565470531033    1.93613554953811
N          -9.26042428600799   -0.26111574106590    1.48266005726049
C         -10.51982296004487   -0.16048719797630    1.69012964392959
C          -9.68011025645796    1.74216365977915    2.43103737628338
N         -10.85511940666793    1.05246611734001    2.27712780094461
C         -12.07127882498147    1.45552885348768    2.61605170958076
N         -13.12990746681032    1.78152470060553    2.90368434489542
H          -1.42154244233323    2.19012984715215   -0.27672995194247
H           0.97125805244571    1.99049526734951   -0.77343734887703
H           0.38925979657195   -2.43834228526328    0.29589128933340
H          -1.92890815253546   -1.81936977165725    0.68781170357843
H         -11.25963921551935   -0.89954034326302    1.45266473958738
H          -9.62975232822132    2.71980308204546    2.86170880304124
