32
0 1
C          -0.89563690005865    1.23685003573684   -0.19936490221280
C           0.39907320972927    1.12494458382833   -0.46362935443909
S           1.36388651609711   -0.33605920448584   -0.25199883955578
C           0.06568028830849   -1.42809747514988    0.21840896217210
C          -1.19874046619532   -1.07792980663039    0.42301157572114
N          -1.71153760889083    0.21069755001998    0.28939702335658
C          -2.99978478784851    0.49293967830534    0.58989066664737
S          -4.12426532027844   -0.68750050694037    1.25717320475130
C          -5.29340390558611    0.67295954230014    1.25629475495962
N          -4.77263760601626    1.76836233522593    0.78576860152112
N          -3.52893033888263    1.67543013940832    0.40685372120804
N          -6.55832969222593    0.37961659037706    1.51767667693931
N          -7.37473090746073    1.27413456041167    1.91592136227293
C          -8.68356397077047    0.93876033264803    1.95812928515406
N          -9.27357982189418   -0.23440107661634    1.54186069951887
C         -10.53690885206164   -0.08864340654712    1.74730021340710
C          -9.66672135799515    1.80133141700326    2.42099434181444
N         -10.84772167577030    1.13987777054783    2.28544112700183
C         -12.11445336522041    1.59622483495082    2.59646351025101
C         -13.30458012189014    0.92933692743377    2.76306389797627
N         -14.28679167188756    1.81686514366827    3.05055171210689
C         -13.72917466825053    2.99192066595606    3.06098127275451
N         -12.40018587247844    2.92313200032093    2.79172781992781
H         -11.75036076927934    3.68931143212498    2.72534179663584
H          -1.42628470100288    2.16459150011659   -0.35046390796110
H           0.96652736603954    1.95550670486063   -0.84360049301076
H           0.38671441778208   -2.44832423170025    0.32947149484698
H          -1.92982302782256   -1.82027033034376    0.70878852691104
H         -11.28774717320429   -0.81965969648357    1.52509320783315
H          -9.57119329417897    2.78465716791656    2.83100883679642
H         -13.50588819563784   -0.11998842577855    2.70255761282174
H         -14.23895572516832    3.91265324751474    3.25808559187102
