25
0 1
C          -0.84088049192198    1.25530548248673   -0.17705865963813
C           0.45609096045832    1.15883358502288   -0.43663436374759
S           1.42724910970458   -0.30127759665501   -0.26430362329950
C           0.13763187218113   -1.41194617191429    0.18185938141720
C          -1.13077221491591   -1.07668961559357    0.38849146756885
N          -1.65322080700664    0.20994410176897    0.27551230336448
C          -2.94516306055580    0.47497275228484    0.57196969356633
S          -4.06944448553728   -0.72731026997629    1.19400209131227
C          -5.24550674647091    0.62871898301953    1.22162362207677
N          -4.72401739342192    1.73812194169649    0.78572936973218
N          -3.47961725556779    1.66082839745321    0.41522049310901
N          -6.50839732457003    0.32081895975145    1.47180369388862
N          -7.33337393152373    1.19747864065539    1.88899994047986
C          -8.63925715223960    0.83580743479434    1.92577895583353
N          -9.19688360736231   -0.32822191353849    1.44665047142775
C         -10.46833682855831   -0.24652289607081    1.66380123118592
C          -9.63729315191138    1.64628471147674    2.44855707090905
N         -10.76652760636422    0.93052232553996    2.26862785685297
F         -12.01398639487506    1.34808798084193    2.63871327002422
H          -1.37631083766831    2.18361924545629   -0.30268850160821
H           1.02154299201442    2.00356719356076   -0.78720164549475
H           0.46838543078093   -2.43078879828673    0.27867398134235
H          -1.85705035731431   -1.82882220087016    0.66066452888500
H         -11.20456523958537   -0.98242810937871    1.41464027391168
H          -9.61152547776866    2.61159583647410    2.90538709690036
