17
0 1
N           1.55737008837699    0.31264718423308   -0.04492314528895
C           2.70124152377918    0.24160793670261   -0.04942749503475
C           4.10167312943925    0.18184115496550   -0.05310468285440
S           5.08510286415422    1.62782352998765   -0.05178899627321
C           6.45331893448094    0.50365425217988   -0.05806017420677
N           6.07713418120133   -0.74452692120886   -0.06121047064426
N           4.79291814931338   -0.92281706388372   -0.05825546092777
N           7.68230561670515    1.05158689460358   -0.06384247355426
N           8.67475068048317    0.24470241278162   -0.05926461744141
C           9.90833105372858    0.78532779256184   -0.06903510792682
N          10.25424587439146    2.11857601312063   -0.07882946556826
C          11.54173430522875    2.14881941075261   -0.08364306852479
C          11.06940791609525    0.01444418017043   -0.06869464451217
N          12.09209099226831    0.89272474297418   -0.07832760098938
H          13.07390099758207    0.66391335422700   -0.08073967604711
H          12.13589267334560    3.04100780918010   -0.09070311883904
H          11.19130101942640   -1.04820268334813   -0.06319980136665
