21
0 1
C           1.31958378483410    0.21821504782293    0.10005871059609
C           2.78875313153303    0.16305180882374   -0.05374710675512
S           3.86949670330622    1.22299844994335    0.85254993705608
C           5.17468001566313    0.34824508136899    0.02561979468677
N           4.72617991597930   -0.55147984492969   -0.80402858553009
N           3.41459147362794   -0.63458652248047   -0.84095207241997
N           6.40947197826055    0.83016176788976    0.11460988997930
N           7.43900550067893    0.10490865903287    0.20212878696208
C           8.64770030115471    0.69552283412484    0.07432742019862
N           8.92346487897526    1.99992103170389   -0.24456243368426
C          10.21388247640670    2.09291292966304   -0.27149578808468
C           9.84658279368155    0.00271052871075    0.24153580440735
N          10.82220757780547    0.90479056939110    0.02507600383400
N          12.18502414105222    0.65539569515506   -0.00682023010513
H           0.94352987789696    1.19544049855211   -0.19907805961230
H           1.04307662223381    0.05372234065241    1.14030965125702
H           0.86843165223895   -0.54895078453714   -0.52267222015979
H          10.76653698586009    2.98428321173309   -0.49315660373275
H          10.02909093500928   -1.02175650080881    0.48872650153618
H          12.42415632516455   -0.12032343514513    0.60306852500091
H          12.70649292863839    1.48826663333268    0.24897207456961
