23
0 1
F           1.35471378235844    0.22008227046081   -0.04882036654602
C           2.66346176130592    0.14604874085209   -0.05691309093134
S           3.65358183710674    1.58055916187882   -0.04044402576847
C           5.00239935013918    0.42038708111886   -0.06315068396232
N           4.60346101662276   -0.81321187709914   -0.08074739835629
N           3.30239488155440   -0.97050059823746   -0.07732147828368
N           6.24376793569040    0.94024011627544   -0.06913815381376
N           7.21730975515147    0.11019704390183   -0.06358969690773
C           8.46434156296576    0.61463681120905   -0.07641213951395
N           8.85564011929233    1.93809908047875   -0.08576756399907
C          10.14068048984213    1.92787470532030   -0.09221694286558
C           9.59733287940273   -0.19343948989951   -0.07855000484746
N          10.65978513464725    0.64630808911556   -0.08918303549112
C          11.99793656062743    0.30176615572033   -0.09526392550536
C          12.61558598566258   -0.91913201496270   -0.09648026890990
C          14.00287257779946   -0.63909208636444   -0.10369028921088
C          14.11859486937053    0.71565919247872   -0.10627048786667
O          12.90396731177411    1.29731251724985   -0.10122266720420
H          10.77126149892433    2.79436384595534   -0.09892732328073
H           9.68030066067554   -1.25894772356196   -0.07460881907582
H          12.15129498618911   -1.88261857702249   -0.09297218529904
H          14.79792501611915   -1.35496743808601   -0.10655893157998
H          14.96938002677833    1.36624499321782   -0.11126052078059
