28
0 1
C          -0.92017304815384    1.39049372290128    0.05566792065862
C           0.38030527999502    1.37300297014328   -0.20120668110619
S           1.38509405409940   -0.07297100126455   -0.30575697390852
C           0.13344433222143   -1.27284085323467    0.00412013557459
C          -1.14535446615275   -1.00919238669606    0.24386903670949
N          -1.71431017666978    0.26225122432215    0.28874274834841
C          -3.02891919218990    0.43966827708805    0.55634970752225
S          -4.13848756596031   -0.88179000604155    0.90065378006042
C          -5.36420751255683    0.41270853308641    1.07569838736905
N          -4.86706546218637    1.59169169349537    0.87154060426750
N          -3.59213964870249    1.61984527706737    0.58633483456023
N          -6.60661230062629    0.02280975546754    1.36960469408961
N          -7.47546060411275    0.96412293512875    1.55337686916407
C          -8.73610869103920    0.62104730691184    1.82251286275485
C          -9.47454382406974   -0.56687923147494    1.96960649071613
C         -10.78333795288977   -0.19993866505349    2.22732506781306
C         -10.84101552368056    1.19139930644891    2.24812205572086
N          -9.61636507970283    1.66993379342126    2.00407395206926
N          -9.22316004541634    2.99771318117998    2.00590079393959
H          -1.47480629569492    2.31503943217574    0.10576598697994
H           0.92952202904064    2.28191754880238   -0.36975593598453
H           0.50012354226356   -2.28343081149953   -0.01664679342154
H          -1.84257389904887   -1.81448562163527    0.42354988512617
H          -9.06727755058906   -1.55465875268118    1.89480472735239
H         -11.61549109361838   -0.85646334234052    2.38833402625817
H         -11.67703113390112    1.84245289487023    2.41182032754803
H          -9.66642268701855    3.51623239805253    1.24966909738492
H          -8.20998548364193    2.99659042135673    1.87272239243252
