27
0 1
C           1.50787926784536   -0.06205175946338   -0.00119738106904
C           2.98707579208203   -0.02209841225120    0.00206824491201
S           3.89021899492950    1.47826364061266   -0.01510609969597
C           5.32861998654185    0.44368949380687   -0.00021957634028
N           5.03007019369404   -0.81984608676289    0.01616808311493
N           3.74189437154758   -1.06913008832177    0.01735340490685
N           6.52526622209191    1.05661171359992   -0.00110565151553
N           7.55370779441142    0.27746009639956   -0.00587774091690
C           8.75753457446525    0.85222357756657   -0.00243442659768
C           9.17799637564035    2.19130064374350    0.00086839575658
C          10.56501274649971    2.19042551320728   -0.00145343253139
C          10.97754850112315    0.86986465649984   -0.00510273060546
N           9.89890350439373    0.05713133647512   -0.00595032280468
C           9.94280418208163   -1.32602970529114   -0.00837482667970
C           8.91022552768090   -2.21904685171519   -0.00221924607502
C           9.35939520217993   -3.55678010962538   -0.00707026029067
C          10.71114510029873   -3.66836967430218   -0.01708381589669
S          11.48851885549363   -2.13534865087587   -0.02036438030942
H           1.09973937745640    0.94430699643104   -0.00725235523964
H           1.15196266354369   -0.59327552104081    0.88028379061875
H           1.15603558862710   -0.60168371081155   -0.87928001439813
H           8.51485710270372    3.03272804895533    0.00340619825954
H          11.21070529983617    3.04616375697550   -0.00055837437716
H          11.97373424509184    0.47073012101397   -0.00714594312867
H           7.87796922528264   -1.92205427057297    0.00555468630136
H           8.69403524279016   -4.40072239026680   -0.00350718257353
H          11.31305406166805   -4.55496236398613   -0.02257904282437
