22
0 1
C           1.40491375241128   -0.12834783298936   -0.12756727743601
C           2.87865060458084   -0.04872017791409   -0.20766572172419
S           3.80057792596109    1.18044807968709    0.65081337657007
C           5.22282026832954    0.38979556229008   -0.04894732373565
N           4.91097428404532   -0.61438462446012   -0.81581225848909
N           3.61781105723668   -0.84263504185423   -0.89724497368586
N           6.41333561640006    0.97836733832759    0.09607902393028
N           7.47264022906748    0.26091417368674    0.06332384968937
C           8.66442772298111    0.85676630997486   -0.00875707530398
C           9.15214286283076    2.16908417425940   -0.15288293918648
C          10.52960969304418    2.08227242611467   -0.21983366531356
C          10.87869884062847    0.73683543529603   -0.10917842239015
N           9.76112210214883    0.01674843431358    0.01401854457638
N           9.66318781798192   -1.34698390819532    0.21788633563898
H           0.95550657555939    0.79661147596836   -0.48670383329486
H           1.09171015811328   -0.27769978722420    0.90493733290249
H           1.05992609722332   -0.95994227771993   -0.73590504402712
H           8.54179273683052    3.04812531890154   -0.19610202487445
H          11.22122900307905    2.89309855637136   -0.33491945549659
H          11.84738747802933    0.27722470985416   -0.12206734930114
H          10.10385462988587   -1.87019640405533   -0.53531091907371
H           8.66721054363165   -1.56663194063233    0.26462982002567
