25
0 1
N           1.69628938602766   -0.47960789572773   -0.01061470026246
C           2.83593896626885   -0.36222302196205   -0.03830110496060
C           4.22624120277546   -0.19381249238223   -0.06690188227033
S           4.96561439938888    1.39020108190862    0.11719682979995
C           6.48676850876269    0.52005423027918   -0.03990360463921
N           6.32696840524209   -0.76861771393046   -0.21179223179420
N           5.08571863699339   -1.15519363450870   -0.22391660440575
N           7.63876255060635    1.21359526199780   -0.01898048849737
N           8.69088035350335    0.45922978282097   -0.02175642266725
C           9.89898640468252    0.99858212411654   -0.05350650886202
C          10.39619797014188    2.31786696165597   -0.07472528755198
C          11.77484332395066    2.23232371415946   -0.08106079449637
C          12.11489854421423    0.88276358183731   -0.06952548910167
N          10.99679394692412    0.13862404407230   -0.05194223182908
C          10.94212539644095   -1.24476480515419   -0.04844050763451
C          11.94614083378443   -2.19126632263648   -0.01150975826695
N          11.40063751801885   -3.42616137240524   -0.03204352027363
C          10.10606772423115   -3.25299149503952   -0.08004127465350
N           9.76902359502284   -1.94586214677133   -0.09323385810489
H           8.85574412539197   -1.49867664763107   -0.11595563239235
H           9.78502605141157    3.19765680298284   -0.07808301291196
H          12.47117932624857    3.04719140381755   -0.09344962258491
H          13.08765474989603    0.43234500336740   -0.07494199536209
H          13.00751077383943   -2.05876663422837    0.03046390722431
H           9.38566730623199   -4.04447981063787   -0.10799420350144
