33
0 1
C          -1.06335819348866    1.50935616725209    0.08505530208468
C           0.23600924520692    1.53393765150840   -0.17771599002488
S           1.28628556448799    0.12286381233491   -0.28626038000622
C           0.07387889406440   -1.11827071649479    0.00805960915783
C          -1.21222624786924   -0.89789379773141    0.25359643234589
N          -1.81941727740719    0.35505726574034    0.31876089561003
C          -3.13536907044837    0.48825454405720    0.59816256953101
S          -4.20784751196133   -0.87405544904130    0.90752926798757
C          -5.46437478593640    0.37479863218486    1.11747946500010
N          -5.00397700270185    1.57780311407980    0.94978848622796
N          -3.73185198458721    1.65127808426664    0.66447649171112
N          -6.70377078980164   -0.03461365625816    1.40302954272868
N          -7.56456644750955    0.91784158713734    1.58159644483606
C          -8.82902779865738    0.59423832197379    1.85771745086858
C          -9.51674821353521   -0.61942306992393    2.01210633454186
C         -10.83691571558469   -0.30770461104865    2.30121635042753
C         -10.94789177480944    1.07317518566913    2.32115897841050
N          -9.74397694892761    1.62125576631677    2.05497009010717
C          -9.46693144763410    2.97614868299776    1.98852918699882
C         -10.26886095908150    4.08272138772792    2.16640911468555
N          -9.53157624547335    5.20448237646402    1.99648818985034
C          -8.31811984094125    4.80440856341413    1.72337827899309
N          -8.21974896669884    3.45754434153100    1.70518467460693
H          -7.42944594534072    2.83944128549838    1.52803777728829
H          -1.64714158365696    2.41541409326836    0.13818830345002
H           0.75371712708712    2.46075460410044   -0.34883374877522
H           0.47109049718576   -2.11690290500146   -0.02712140016192
H          -1.88307789597671   -1.72718738937179    0.42302027786768
H          -9.07031792029439   -1.58851358002165    1.91721786770487
H         -11.63629345339238   -0.99959593874865    2.47908450569314
H         -11.80873236850547    1.68349961816150    2.50820659401727
H         -11.31167436710817    4.13960444614707    2.40206547195560
H          -7.48933057070089    5.45547158180992    1.53424756428097
