27
0 1
C           1.41730774096684   -0.11059547241738    0.01562438554976
C           2.89686812169870   -0.08934345964081    0.01730260288525
S           3.81985418266768    1.39871146133281    0.01797347538230
C           5.24455403738479    0.34557285705714    0.01938135791057
N           4.92925774489269   -0.91415222061093    0.01965891072172
N           3.63816197751983   -1.14639857619887    0.01851829869889
N           6.44845035851834    0.94416633899571    0.02077657545828
N           7.46948680066728    0.15545402223013    0.01783602902286
C           8.67787175470820    0.72166207400002    0.01886638100352
C           9.12540166540373    2.05181760336303    0.02060392086502
C          10.51290148031230    2.02228390015762    0.01871732677117
C          10.90187585437080    0.69424660239873    0.01593806184742
N           9.80311537516926   -0.09185158927154    0.01611688687172
C           9.81141668469805   -1.47450732291028    0.01477718903642
C           8.80136098289794   -2.39674742131399    0.01613452483172
C           9.44548023977993   -3.65776165909326    0.01332295915262
C          10.78180260555099   -3.40921292779068    0.01180551051970
O          11.01857456156154   -2.08147950846313    0.01183356639324
H           1.02184211656168    0.90077012912912    0.00880727796783
H           1.05578943537687   -0.63588627271479    0.89843356554192
H           1.05804331079613   -0.64732800435258   -0.86117451361868
H           8.48169777332909    2.90813514079497    0.02270141553036
H          11.17410782162554    2.86620953422541    0.01918710165948
H          11.88594667575366    0.26816640184384    0.01401797050996
H           7.75198956922324   -2.18994657300120    0.01818687098598
H           8.96928159644335   -4.61606525264176    0.01319165480758
H          11.63799953212150   -4.05328980510722    0.00980069369332
