19
0 1
F           1.48319037780125   -0.17571967966683   -0.18890955760976
C           2.79353193995188   -0.10978596295519   -0.23266725801957
S           3.66221657632954    1.14207404118139    0.63492314085042
C           5.10114795596644    0.33659896891233   -0.03261501435121
N           4.80964892007100   -0.68444465601691   -0.78678160304052
N           3.52048275718541   -0.92747137174036   -0.89643655805503
N           6.28244324881927    0.93608077244528    0.10471635296802
N           7.35788328268544    0.24356591423048    0.10844990537768
C           8.53414530000600    0.85463360426583   -0.00378839572119
C           8.99481343987883    2.16834828846562   -0.22770753024729
C          10.37044289848975    2.10496473911502   -0.30746849728966
C          10.74852789331657    0.77232206655708   -0.12691563921829
N           9.65065009332915    0.03810526742745    0.05226741923999
N           9.58325146714974   -1.31098476003558    0.33202716407997
H           8.36566004033574    3.03103978207677   -0.31024432110680
H          11.04494201645631    2.92064252672062   -0.47543033648872
H          11.72714020756086    0.33407188414136   -0.13051274753474
H          10.05617202438558   -1.86871196433620   -0.37434124743918
H           8.59507956028120   -1.55921946078809    0.38413472360565
