27
0 1
C          -0.82291986150721    1.32469857023644    0.09364017402706
C           0.47442840013426    1.25918245654852   -0.17411011308070
S           1.41402356434608   -0.22220160117267   -0.33069693758195
C           0.12171693382785   -1.37637741222231   -0.03242876161764
C          -1.14478701571671   -1.06844586673694    0.22372092233256
N          -1.66208882508284    0.22346544814050    0.29760470304476
C          -2.96667466602980    0.44592244818679    0.56741113266410
S          -4.13705374304168   -0.82858044633093    0.86417645774262
C          -5.30625647556858    0.52089431538041    1.07204677182508
N          -4.74514285885593    1.67862070835738    0.90829299901823
N          -3.47746829589798    1.65437863717128    0.63351374044338
N          -6.55957523082446    0.17322319664785    1.34971630676046
N          -7.41953440698094    1.11988408568053    1.53536928229802
C          -8.67412587266927    0.72824391957573    1.80896362654586
C          -9.31808957149069   -0.49723658160004    1.95572254749058
C         -10.66184442385261   -0.23801997809852    2.25266791778020
C         -10.83245786698834    1.12305270131878    2.28527886551673
N          -9.63126371257606    1.71825248120875    2.01725464336933
C          -9.41913542672155    3.02670948498264    1.96417435472975
N          -9.28222963072227    4.16172442915067    1.92841967158062
H          -1.33795665087793    2.26965394569767    0.17623826285202
H           1.06070125753198    2.14900787214152   -0.31869057985827
H           0.44823404302291   -2.40018346919908   -0.07423837825504
H          -1.87199857109097   -1.84851354194022    0.39550845628875
H          -8.84355410183069   -1.45242317216860    1.85472410923956
H         -11.42716436525070   -0.96892707787413    2.42546596639660
H         -11.70844262528610    1.71184444691830    2.47703385844767
