26
0 1
C          -0.83456891712320    1.32628051710733    0.07130767881642
C           0.46573789584314    1.27982749874123   -0.18365575123864
S           1.43479189354546   -0.18915869894360   -0.30253129195048
C           0.15148347842034   -1.36224446781192   -0.01899732026528
C          -1.12083957319730   -1.06995304516980    0.22316434235626
N          -1.65634889618532    0.21494682415380    0.28989570848823
C          -2.96628029015632    0.42200191047630    0.55729956147939
S          -4.11191346455598   -0.87170447407958    0.88166701542631
C          -5.30534104666995    0.45595081631718    1.06929020691562
N          -4.77185740508672    1.62124439060747    0.88262822904049
N          -3.49801513692947    1.61769020732572    0.60231363138553
N          -6.55655762120765    0.08896466528226    1.35030417972687
N          -7.41891203422438    1.03318041129118    1.54120387920346
C          -8.67767668564118    0.66038318007389    1.81009836093087
C          -9.34956055280450   -0.56198065809563    1.95562841438272
C         -10.67638847625689   -0.26705564327518    2.24825726061039
C         -10.80163762350121    1.11118435604954    2.27659255730955
N          -9.60090072160762    1.65610268846884    2.01428159697431
H          -9.37443892792423    2.63596139355800    1.96402284043692
H          -1.36745269103225    2.26292107602653    0.12916495949122
H           1.03753119856106    2.17643966180125   -0.34309857332826
H           0.49209456963975   -2.38135669368730   -0.05965740705402
H          -1.84033387645151   -1.85929604911482    0.38461695031293
H          -8.89826539782229   -1.52845845267664    1.85693451165977
H         -11.46557327048568   -0.97193175897296    2.42209214246201
H         -11.66865642714625    1.71350034454692    2.46711631642744
