17
0 1
F           1.33968686567655   -0.08640845372163   -0.04874099828986
C           2.65134783932055   -0.07465280232521   -0.04890315096607
S           3.54150097454853    1.42601212298628   -0.05607013874991
C           4.96812126802026    0.35787220571308   -0.05199921883637
N           4.65366800058431   -0.89962383886806   -0.04661392466629
N           3.36372490582132   -1.14373354414202   -0.04508536319801
N           6.16747977562434    0.96088881449832   -0.05384208713904
N           7.20279792906480    0.19188145118576   -0.05412256616713
C           8.40206466165402    0.77851750979583   -0.05446062778083
C           8.86564961828772    2.10645535396551   -0.05506866537869
C          10.25148790400346    2.05403867135164   -0.05548045610883
C          10.61925360963773    0.71536126242817   -0.05495391022419
N           9.50962448158337   -0.03617818967995   -0.05443649237315
H           9.45276346427654   -1.04210922606705   -0.05386469722493
H           8.23909595893121    2.97525928663667   -0.05539322225402
H          10.92513743423361    2.88797092928422   -0.05608639041742
H          11.60070530873167    0.28186844695847   -0.05494809022526
