18
0 1
F           1.33713993414023   -0.04789826302297   -0.03890977448668
C           2.64579534515933   -0.06383382899511   -0.04032891181526
S           3.56661594838497    1.41632512479521   -0.04493708086059
C           4.97030317699037    0.31681928287368   -0.04407860353137
N           4.62847241996940   -0.93320839462563   -0.04048909023780
N           3.33759678029118   -1.14880547303713   -0.03840177182968
N           6.18068405872975    0.89714790663167   -0.04537657495399
N           7.20703364667105    0.12271959290994   -0.04764071340069
C           8.40577622800528    0.71998644528241   -0.04708228662549
C           8.84973054974518    2.04374420689184   -0.04463603978986
C          10.24596086318206    2.02161139260348   -0.04541145113314
C          10.64640118704878    0.70477303199720   -0.04821081508700
N           9.53989487629757   -0.08857613974731   -0.04930868195037
C           9.54999897436558   -1.41860287248077   -0.05177611361131
N           9.60796109482599   -2.55998217241153   -0.05350479462700
H           8.20739986162815    2.90138840145847   -0.04269822950030
H          10.89746278041364    2.87293886414661   -0.04406978668182
H          11.63206227415149    0.28047289472993   -0.04948927987765
