25
0 1
N           1.41884197725118    0.20551596371676   -0.34146444055025
C           2.55619850268847    0.17932520925112   -0.19469937493219
C           3.94583837090216    0.16534890599553   -0.03948440348556
S           4.99496668050008    1.15205332758501   -1.06220626314670
C           6.31541462858899    0.40381391060189   -0.14575536534194
N           5.88609943206866   -0.42186399433890    0.78284231965287
N           4.59522406796067   -0.54048740136715    0.83165427163981
N           7.54002459404456    0.88711056266851   -0.28153032330824
N           8.58782802652169    0.16921502121365   -0.20477115341115
C           9.77308049469126    0.77125877305647   -0.10148163960918
C          10.17510150757041    2.11428761498619   -0.00691046312819
C          11.55993003051197    2.12795310164533    0.04901964496369
C          11.99286496480953    0.81250574458396   -0.00242909597096
N          10.92468975562044   -0.00614916037183   -0.09103101375081
C          10.97799999967386   -1.38765702105112   -0.13626815558569
C          10.00381124669336   -2.34379086617233   -0.04568763293985
C          10.68177544643393   -3.58204591184045   -0.14569622142922
C          12.00187989160830   -3.28729838017200   -0.28486546012251
O          12.19502571931433   -1.95378419506676   -0.27933453512019
H           9.50616432297211    2.95126597445693    0.00743713185286
H          12.19238581251181    2.99031674084582    0.12116812138561
H          12.99051083894994    0.41970625088781    0.02142200268869
H           8.95557577252981   -2.17654438870738    0.08012170704886
H          10.23840543159443   -4.55527697649150   -0.11420056243736
H          12.87185248398781   -3.90328880591604   -0.39165909496347
