24
0 1
F           1.44246243053780   -0.05821507971300   -0.09927789272563
C           2.75309880837005   -0.00843765814042   -0.08772554391343
S           3.60058403647290    1.51793986548104   -0.15559076683248
C           5.05386136356139    0.49708112512818   -0.09424479481030
N           4.77971752862491   -0.77014868093385   -0.03531278125365
N           3.49667801802954   -1.05325877780965   -0.03250442996757
N           6.24378625868565    1.12222425426842   -0.09546422755006
N           7.27531234277557    0.34454046293866   -0.10309521458615
C           8.48075552178610    0.90294461106588   -0.08468228260620
C           8.94590723573328    2.23077878861547   -0.07079536346079
C          10.33019394951177    2.18370351051559   -0.06765038978407
C          10.70372640100757    0.84793173197658   -0.07641585971753
N           9.59896246057639    0.07569913943264   -0.08724686140967
C           9.58884850376761   -1.30727854088219   -0.09202474577975
C           8.56647637255248   -2.21670665622388   -0.08695455322472
C           9.19391906726762   -3.48543178342493   -0.09430753118253
C          10.53372734546439   -3.25389398129069   -0.10264069214352
O          10.78782294178727   -1.93009444828713   -0.10115812819248
H           8.31225726014940    3.09457441228886   -0.06783245040318
H          11.00348954929327    3.01793725381462   -0.05981337060370
H          11.68389994536304    0.41248568574280   -0.07514602386574
H           7.51940334391142   -1.99831789442215   -0.07858259143508
H           8.70504141038223   -4.43715788148024   -0.09300639766533
H          11.38107790438828   -3.90946945866064   -0.10943710688638
