20
0 1
N           1.64265037027000   -0.01004854619646    0.08377038171013
C           2.78669725704389   -0.00559999422000   -0.00129943432906
C           4.18200484011134    0.02778434091437   -0.08366426098226
S           5.13538497155503    1.11896434466801    0.92603165699520
C           6.53003285771426    0.37427487526929    0.12630241037976
N           6.18470968676278   -0.52669222395556   -0.76624493511746
N           4.90342601510706   -0.70494360419802   -0.87208516976714
N           7.72719359311059    0.91317387417205    0.29371645673537
N           8.80261117033463    0.22974188862234    0.28501037186884
C           9.97652013721684    0.84333134739771    0.16281901486298
C          10.42507663454523    2.15807714681942   -0.08249340632872
C          11.80058356682756    2.10516997908148   -0.16418267985761
C          12.19035250484044    0.77823482866904    0.03576497442584
N          11.09960019886772    0.03697025480457    0.22853411477395
N          11.04780873439314   -1.30716500829089    0.53180193278528
H           9.78841401519197    3.01416816485307   -0.17740231481434
H          12.46775529266018    2.92375274448544   -0.34657348549965
H          13.17313019682188    0.34903760238629    0.03793115112628
H          11.54942333359628   -1.87055569344841   -0.14959257006365
H          10.06546462302950   -1.57624632183389    0.57345579109629
