20
0 1
C           1.31407019144899   -0.03123920290534    0.06998151088056
C           2.79086010650875   -0.03944267603781    0.06399870024562
S           3.75267895852887    1.41520456092560    0.06416008981010
C           5.14962742784790    0.31817987182391    0.05561531470380
N           4.79236949336010   -0.93128820755422    0.05381036363109
N           3.50521928274159   -1.12277805618600    0.05843942984012
N           6.36608942931684    0.88368303845778    0.05427895115321
N           7.38372136105007    0.10511778433809    0.04589331747029
C           8.58679727364958    0.71704993847339    0.04644015615248
C           9.04235742081923    2.03380711321170    0.05258870539376
C          10.43665321240416    1.93085409180522    0.04835380433600
N          10.83270173012611    0.67424240676898    0.04034344959446
N           9.72585948479835   -0.06944995209472    0.03902780710180
C           9.75868058157949   -1.40080674090496    0.03173459248064
N           9.79664668780856   -2.54276348909874    0.02644424229997
H           0.93274040234904    0.98550468167676    0.07463235167888
H           0.94912447483174   -0.56185932990126    0.94846160022463
H           0.94191889507807   -0.55653426260237   -0.80867900916416
H           8.43671445292391    2.91577850609282    0.05893704591169
H          11.16510913282866    2.71740992371118    0.05080757625509
