16
0 1
F           1.42539774088885    0.12724763439112   -0.04736184322176
C           2.73238312254396    0.11734449853029   -0.05066885365547
S           3.64772615438811    1.59975099325075   -0.05147632340516
C           5.05306888965171    0.50718210141958   -0.05599758332418
N           4.71714764992922   -0.74511915062273   -0.05579518554116
N           3.42978466120484   -0.96604065592147   -0.05270817080494
N           6.26610675643491    1.08754109640493   -0.05718268234534
N           7.28873212897223    0.31857164797989   -0.06317820638069
C           8.48964513796816    0.92463708031656   -0.06300750716826
C           8.97442549555887    2.24597654876258   -0.05873901867302
C          10.35463165143812    2.12199080575456   -0.06220910692459
N          10.72398088043589    0.84016694136887   -0.06804460311439
N           9.62104256723510    0.16831393996198   -0.06850855407969
F           9.66146594023326   -1.17903594335977   -0.07369201565605
H           8.37858371532265    3.13456935682333   -0.05405706870990
H          11.10453750779414    2.88699310493952   -0.06080327699541
