18
0 1
F           1.46534659791676   -0.02700598980267    0.03272585914120
C           2.77379473033457    0.02318296479692   -0.03615918654441
S           3.68045630430204    1.20383639068806    0.89087522969726
C           5.09006092598714    0.42048140523840    0.14483322389635
N           4.76801372631516   -0.54419785786866   -0.66938139398670
N           3.47514143384439   -0.75828667693332   -0.76943374406119
N           6.28520628906430    0.99189802415297    0.29092157238163
N           7.35012490333108    0.29380177092672    0.26641435830038
C           8.52852044812727    0.91649913052145    0.16588457055054
C           9.00960343849910    2.22230028625473   -0.07773790890327
C          10.37504518449271    2.07788671811094   -0.16343894814219
N          10.74357835144013    0.79465485441820    0.01017351850892
N           9.65076934783949    0.12587936739177    0.20571119851889
N           9.64750769687283   -1.20248983620172    0.50235728552910
H           8.41838148502207    3.10779662065945   -0.17535937695650
H          11.12662972351366    2.81889361658711   -0.34551630308900
H          10.43015100244881   -1.68456939528673    0.07554824175393
H           8.73752841064846   -1.60490139365360    0.29780180340488
