26
0 1
C          -0.81237997073371    1.32437047076271    0.07644163409700
C           0.48490816725628    1.25704784762838   -0.19352503824398
S           1.42355314612241   -0.22279467399821   -0.34181795833112
C           0.13584951265987   -1.37473540666822   -0.03239931857507
C          -1.13136697932757   -1.06761016540355    0.22413581276850
N          -1.65037640056662    0.22404470821114    0.28922151715094
C          -2.95313789493353    0.44544954839443    0.55835530439261
S          -4.12482946446795   -0.82290309388833    0.86237191259576
C          -5.29221755572860    0.53051874021031    1.06195582024774
N          -4.72583876232617    1.68732887319663    0.89089939652605
N          -3.46361762459471    1.65890848375966    0.61752025802985
N          -6.54461641573104    0.19083915368838    1.34057462257610
N          -7.40797676500393    1.13376212205168    1.51596637060834
C          -8.66099876919295    0.72095887358739    1.79177629901689
C          -9.30249467583599   -0.50521440803362    1.95325636320195
C         -10.63241232270400   -0.18055248277020    2.23812180515105
N         -10.82655623201617    1.12170888021666    2.25714375079178
N          -9.64058502187844    1.67945946331543    1.98894580753149
C          -9.46708350201245    2.99629614262164    1.92733678542666
N          -9.32762008873716    4.12980412120354    1.87668508643192
H          -1.32674944075583    2.27016069316140    0.15330375678138
H           1.06930842195723    2.14713661669231   -0.34501337075070
H           0.46289808782119   -2.39882640266446   -0.06655410394535
H          -1.85603877873767   -1.84820824983315    0.40309762063171
H          -8.85365566970851   -1.47295085060828    1.87292785751140
H         -11.45427500082321   -0.84206900483301    2.42950200837727
