23
0 1
F           1.35817879414788   -0.11316658412978   -0.08960220523434
C           2.66111756414576   -0.04344600091757    0.03234659985111
S           3.59590151213520    1.09892477710588   -0.91323760179463
C           4.97989577656570    0.36815901845642   -0.07049143475978
N           4.63085313614062   -0.55522097847312    0.77828754040606
N           3.33869429749859   -0.77751377658337    0.83449875407923
N           6.17469620970505    0.94521456578298   -0.20076218916547
N           7.24351874861174    0.26494915572064   -0.11513758368652
C           8.41872569494353    0.89449471953061   -0.04139560583514
C           8.86880937249575    2.22328769867036    0.04818713121782
C          10.24707914593264    2.11734308287826    0.11536297306104
N          10.64170012270949    0.84378201068989    0.07598431394917
N           9.55444109650721    0.11279503985790   -0.01720053884586
C           9.58856941359434   -1.26105219921521   -0.06460655334891
C          10.71190778756166   -2.04455079752896   -0.01194531272574
C          10.39729194626082   -3.41319515377841   -0.07602427172700
C           9.05892858660525   -3.63756559111548   -0.17669066730436
S           8.13224947183132   -2.18771672703439   -0.19400626183275
H           8.25950955671996    3.10216551242506    0.05841371697037
H          10.98035149339598    2.89526456441234    0.19056736360219
H          11.70191037756883   -1.63658847541893    0.06963249766905
H          11.13526537212717   -4.19397209963833   -0.04776369495097
H           8.55511452279544   -4.58152176169670   -0.23901696959453
