24
0 1
N           1.60485492559243    0.00823855928050   -0.42169439138005
C           2.73425485915910    0.02844250708401   -0.22427077228521
C           4.11650874216112    0.06474092814732   -0.01646287488133
S           5.20486916482571    0.80682236878062   -1.19572537714006
C           6.48900259556720    0.28423234054092   -0.09353258109263
N           6.02556308176769   -0.31304074711106    0.98265540616906
N           4.73509428926453   -0.42195967023058    1.01129565631353
N           7.71588249300211    0.73949145391344   -0.27923803383856
N           8.77526953572808    0.06631435229987   -0.14811945322822
C           9.94638586716138    0.72014282750740   -0.11172202546434
C          10.32846478465467    2.06846700849956   -0.02467622642877
C          11.71304302459437    2.03799762215916    0.03350954894531
N          12.17213750199218    0.79077500734597   -0.01436734926207
N          11.12203223761775   -0.00167926943772   -0.09746824044933
C          11.28471310445549   -1.36925283472487   -0.16234495376623
C          12.44297997568821   -2.10420576088697   -0.12833373755657
C          12.03029203588930   -3.45091925988143   -0.22361845696307
C          10.66961139003343   -3.42703909316764   -0.30804652458821
O          10.21107421695362   -2.16506064918747   -0.27341334617125
H           9.67313715243659    2.91380567424679   -0.00305355720006
H          12.40259294798960    2.85493985518403    0.10648268455629
H          13.43584846699933   -1.71604851995944   -0.04545227730434
H          12.66086629590571   -4.31535257355658   -0.22818934874200
H           9.94063131055857   -4.20788212684830   -0.39199376824319
