32
0 1
C          -0.87876482009394    1.37043650464231    0.08584956993047
C           0.41378040638520    1.30807904605440   -0.20532645432332
S           1.35613803033510   -0.17091658361576   -0.37289852881034
C           0.07301418721640   -1.32770510501954   -0.04152516694523
C          -1.18950409055832   -1.02247921370620    0.23653385707957
N          -1.71111562166427    0.26797237847567    0.30963479978194
C          -3.01393185084451    0.48688956107131    0.59217132112334
S          -4.17266683374704   -0.79089131573052    0.91410942717597
C          -5.34982872807608    0.55354385569455    1.11606805926656
N          -4.79811889414773    1.71222473875802    0.93367938559569
N          -3.53141160793254    1.69300528532247    0.64629806367991
N          -6.60455300994037    0.19521205546888    1.37638199158891
N          -7.46978919571410    1.12680951819879    1.59249688919392
C          -8.72464957013791    0.70587465209396    1.82861889384201
C          -9.33841083746812   -0.54856217534480    1.95401789123668
C         -10.66757964275148   -0.26556608909393    2.23478887536515
N         -10.88704384707312    1.04300254556859    2.28066611856344
N          -9.72349372648728    1.63009454048013    2.03932382790611
C          -9.63798625242846    3.00606292954192    2.01207310469214
C         -10.61570415135633    3.93445813607771    2.26316126644727
C          -9.98891750239625    5.18880690301511    2.09139758889345
C          -8.69563436686162    4.92389209612303    1.75346877764324
O          -8.47783080377941    3.59914764628982    1.70264037809388
H          -1.39507973725824    2.31429048048372    0.17238055368615
H           0.99396567441369    2.19948373961491   -0.36422464226647
H           0.40253402778394   -2.35060754497612   -0.08160474961389
H          -1.90980496248172   -1.80472786547827    0.42735957151246
H          -8.85842761876385   -1.49943656659807    1.85579868832499
H         -11.47853885684503   -0.94567839487215    2.40515253009461
H         -11.62983168239229    3.72681346865771    2.53043935562491
H         -10.44146643181908    6.15207832366386    2.20472378825479
H          -7.86389768311455    5.56163244913946    1.53156496736154
