16
0 1
F           1.44724495985835    0.02303200528356    0.07078395821410
C           2.75577392864193    0.02148772570678    0.06920445522485
S           3.66155459207787    1.51116043241446    0.07013756781269
C           5.07413089147459    0.42919505916059    0.06691734568371
N           4.74776442813202   -0.82558302101081    0.06560881298941
N           3.45909393764393   -1.05619316902136    0.06687204495589
N           6.28470118665560    1.01598977507521    0.06630467102254
N           7.30755740293130    0.24273510331850    0.06366525301382
C           8.51332758565323    0.83827671145179    0.06319611065555
C           8.99157141702546    2.16027565556222    0.06518936856698
C          10.37323638584133    2.02843521922865    0.06311438545659
N          10.73479028527887    0.74687404920655    0.06006043717446
N           9.62595949534427    0.04786939054150    0.06017483589907
H           9.63873964460384   -0.96118374606932    0.05811437414097
H           8.40123849131854    3.05223397856441    0.06774407162412
H          11.12206536751889    2.79497483058726    0.06364230756523
