17
0 1
N           1.52393419629630    0.16717677726500   -0.07039209731797
C           2.66889177290952    0.12187602801300   -0.07373528538109
C           4.07085967172489    0.10115751578005   -0.07811731710985
S           5.00726515615801    1.57783007322977   -0.07992382919466
C           6.41029101260870    0.49619769334853   -0.08545622696698
N           6.07416651508396   -0.76336591763470   -0.08439410422989
N           4.79677137711396   -0.98069933589798   -0.08039290261520
N           7.62289930578084    1.07679811103892   -0.08575195124457
N           8.64054827651644    0.29480348668621   -0.09717839779081
C           9.84961802944391    0.88026737791754   -0.09422913458121
C          10.33635020963289    2.19998146909289   -0.08461658957359
C          11.71675241330431    2.05936231191234   -0.08966607745641
N          12.06996442335820    0.77513016596493   -0.10088087709585
N          10.95766644877841    0.08290716221583   -0.10385682712212
H          10.96463454535174   -0.92632530398232   -0.11157556113456
H           9.75163695467520    3.09568655778831   -0.07615005167097
H          12.47050969126273    2.82101582726167   -0.08571276951427
