27
0 1
C          -0.90394145713351    1.38089039214509    0.03827853180891
C           0.39202801706892    1.35781397953913   -0.24176592049933
S           1.38910121165071   -0.09037510990662   -0.36014559389119
C           0.14659874488235   -1.28325733855922   -0.00100886678856
C          -1.12810247177546   -1.01643002896042    0.25868508949223
N          -1.69729112234160    0.25560419490862    0.28919411176315
C          -3.00810872857337    0.43623639602819    0.56419518819207
S          -4.11957207100298   -0.87588740616226    0.92765530936797
C          -5.34042131986742    0.42495517142509    1.09466093978101
N          -4.83834708828282    1.60026207937824    0.87577595709391
N          -3.56868599515103    1.62138084970805    0.58574853924746
N          -6.58117051909042    0.04552760046539    1.40569462574047
N          -7.45354382602112    0.98376088314955    1.56405779430536
C          -8.71411326210397    0.62091713254762    1.83521768762446
C          -9.47576847737493   -0.56183316646109    1.92939222418522
C         -10.76504507493617   -0.12623142960009    2.14831380880782
N         -10.82996933538318    1.21481388374342    2.19899272770392
N          -9.61298087313621    1.63856970935614    2.01537204352794
N          -9.26916323449476    2.95990443383217    2.09183496465393
H          -1.45438297346473    2.30754915016453    0.09555630452746
H           0.94060498004261    2.26508902596176   -0.42147502402496
H           0.51380205785993   -2.29397781381902   -0.00694395857166
H          -1.82020662267744   -1.81860920046788    0.46938921019801
H          -9.10922081392799   -1.56230270441200    1.83846312454013
H         -11.66194949284750   -0.69930855376915    2.27116457185895
H          -9.97032056788107    3.55417610350284    1.66304819283322
H          -8.33593968403687    3.07404176626174    1.70172841652218
