23
0 1
F           1.40835422305029   -0.04016254353467   -0.27153137622657
C           2.70802480154147   -0.00507938305304   -0.10291849998606
S           3.73374287648472    0.91697819166539   -1.18842849045740
C           5.04955770943419    0.28068113240320   -0.17357899500342
N           4.62257640127421   -0.46394274505961    0.80606622770451
N           3.31840255146713   -0.61448356836483    0.84255104363281
N           6.26933137116935    0.78740565854031   -0.33385302002260
N           7.32051826712057    0.09301199275089   -0.19771030556820
C           8.49709454460466    0.73760794274593   -0.14968954552360
C           8.89182864101679    2.08186237401983   -0.06121735180705
C          10.27534579723408    2.03806661108789    0.01539869324145
N          10.72291886037832    0.78646701208686   -0.02349564298877
N           9.66534404842466    0.00460022030174   -0.11904884215175
C           9.81467255270898   -1.36489597624903   -0.17769955302458
C          10.96164475278852   -2.11314893062866   -0.09173499076772
C          10.53850500927625   -3.45500657604971   -0.20690560418985
C           9.18357870391787   -3.41508852939445   -0.35311031620873
O           8.73878031334539   -2.14808504222339   -0.33858229206636
H           8.24448528153728    2.93343862899011   -0.05159575546290
H          10.97195904305572    2.84843801146867    0.09570738754251
H          11.95381669931349   -1.73607656328234    0.03661281595438
H          11.15830290180582   -4.32693259548532   -0.18324204930920
H           8.44972464905053   -4.18678532273557   -0.47062353731017
