32
0 1
C          -0.89057741897641    1.36738398592158    0.08006310589762
C           0.39998963121569    1.32324855858223   -0.22196223960157
S           1.35797044045708   -0.14268861661350   -0.41118138368269
C           0.09449796279647   -1.31766958351501   -0.06971445178868
C          -1.16914736894712   -1.03029758888142    0.22038885030724
N          -1.70750844490381    0.25290947986223    0.30135954215368
C          -3.01171037338210    0.45293849552973    0.59213597387405
S          -4.15045514502686   -0.84641679821032    0.91481082878142
C          -5.34276576838468    0.47288377548485    1.12751774966451
N          -4.81539638524458    1.64516441823209    0.94880697941015
N          -3.54750268439727    1.64871081326918    0.65462298563120
N          -6.59671589079689    0.10530741245218    1.39000259160264
N          -7.44754316033774    1.05017754082559    1.61697358295471
C          -8.71314293614508    0.67095391475238    1.84451761165629
C          -9.37021550687283   -0.55905711830952    1.93201749617477
N         -10.66944283559816   -0.37321424004302    2.20470739273471
C         -10.84265077811001    0.92536650336251    2.28693853278177
N          -9.70084466334932    1.62226561316854    2.08215238720338
C          -9.55838963526000    2.99781077280316    2.09546854727486
C          -8.44232481347074    3.73807721337186    1.83555267767941
C          -8.68590514095502    5.12386157771558    1.94504550107849
C          -9.96701149685566    5.41627492045393    2.28150350842336
S         -10.92821265211985    4.00367251225567    2.47922080278594
H          -1.41725501217410    2.30420576656897    0.18008232227406
H           0.96840186373722    2.22288458546624   -0.37687970543556
H           0.43778691916000   -2.33586696314129   -0.11432116999108
H          -1.87650746536805   -1.82279120603906    0.41733656280002
H          -8.94467289501879   -1.53487489493991    1.81343119511200
H         -11.78276543370914    1.39841125829010    2.49337386153078
H          -7.49564240597739    3.29847455626889    1.58107628914720
H          -7.93081004546577    5.86992329468329    1.77703892676831
H         -10.42000046051891    6.37621004037221    2.42859314479676
