19
0 1
C           1.38667860345955   -0.03406469327351   -0.01027219756349
C           2.86538657352037   -0.03567203983926   -0.01345150154732
S           3.81462982709083    1.43178194301751   -0.01183488356977
C           5.22045730640278    0.34948237844073   -0.01737015431854
N           4.87900482931499   -0.90272034823667   -0.01946840485799
N           3.58687728170358   -1.10917466320705   -0.01731620889341
N           6.43319069002128    0.92959307654283   -0.01712655475652
N           7.45218590028078    0.14772947901414   -0.02428134783426
C           8.66177571361397    0.73387017249306   -0.02272645596769
C           9.15849401706800    2.04117517354085   -0.01600372943587
N          10.49870525505285    2.02151234067214   -0.01866243905604
C          10.84854681470208    0.75342794698497   -0.02660262479958
N           9.78478644423038   -0.06567906002032   -0.02951828441037
H           9.76385173552775   -1.07280464510975   -0.03523616791768
H           1.00470303602779    0.98252568354842   -0.01207616626042
H           1.02053607154943   -0.55823174152602    0.87143850564041
H           1.01672580031631   -0.56318519867148   -0.88737561154797
H           8.60286870741547    2.95692508571926   -0.00984952927338
H          11.86467539270180    0.41148910991017   -0.03037624363011
