18
0 1
F           1.38502973178235   -0.03582999442079   -0.07452796615713
C           2.69377670880433    0.01043883100659   -0.13051365548117
S           3.58581737640426    1.28870444758173    0.67003341326145
C           5.00607626272387    0.43281599619395    0.03384179296579
N           4.69664839558122   -0.61822367269671   -0.67127950808131
N           3.40579033266062   -0.84737727118904   -0.76209887416618
N           6.19890956307451    1.02150182953952    0.13275223813873
N           7.26150148849636    0.31733256030808    0.15191253938899
C           8.44480655047347    0.92170531017525    0.01321998087413
C           8.94922632861653    2.20653996999251   -0.24902423422930
N          10.27446518555444    2.16187345195159   -0.34268324473567
C          10.62803213193196    0.89870720095579   -0.14094771451105
N           9.57089997257064    0.11315724694517    0.07625300759215
N           9.53532235755848   -1.22581342614092    0.39516848509805
H           8.39774065626135    3.11770321099600   -0.36213423002776
H          11.63922204054174    0.54461492851417   -0.16371197164123
H          10.06292394343271   -1.78867809415152   -0.26590849730887
H           8.55710097353118   -1.51234252556120    0.42454843902048
