25
0 1
C          -0.79336844905337    1.32596944336145    0.07826044496400
C           0.50472168292835    1.25243520494351   -0.18393622958510
S           1.43616356221632   -0.23377001232485   -0.33326661707992
C           0.13604953319046   -1.38035611032715   -0.04395827200059
C          -1.12958940759897   -1.06508785448322    0.20712023468371
N          -1.63954788282353    0.22995249327182    0.28061836982424
C          -2.94241985983020    0.45865081133899    0.54911207919514
S          -4.11966921368084   -0.80893778742396    0.84682989033771
C          -5.28071868553577    0.54617224564102    1.05603245598599
N          -4.71345978075756    1.70183446388909    0.89033426226440
N          -3.44790844855930    1.67118920266228    0.61385005133744
N          -6.53622942650008    0.20405760492415    1.32884738911621
N          -7.39232325820142    1.14583500904492    1.53325281614276
C          -8.64946984450359    0.74147311312957    1.79642432538934
C          -9.32820905605814   -0.46961568126156    1.93185385533799
N         -10.62409031541230   -0.25646537869383    2.22094902410010
C         -10.79206301515713    1.04361072649392    2.27231110566925
N          -9.63410837462308    1.67475763249446    2.02529598157153
F          -9.46540199842333    3.02395060431234    2.00203483612846
H          -1.30249825564017    2.27426650058047    0.15706352449875
H           1.09594077839734    2.13919309508897   -0.32777120426040
H           0.45555872216907   -2.40641456779033   -0.08616851844367
H          -1.86187805895479   -1.84109475506191    0.37389997879513
H          -8.92674987101360   -1.45775977260720    1.83402862184729
H         -11.71285107657440    1.54901376879699    2.48078159418057
