26
0 1
C           1.45335609335376    0.05093691161946   -0.01591779059269
C           2.93209507158751    0.06683684345258   -0.01753597398803
S           3.86318922085092    1.54718314428944   -0.02553082426418
C           5.27980487624729    0.48711354401572   -0.02198925730284
N           4.95797707913791   -0.77182103863406   -0.01521370381626
N           3.66803751704000   -0.99631931047202   -0.01316679042764
N           6.48989825662590    1.07586781313455   -0.02378863734425
N           7.50204689732301    0.28255624237801   -0.02574892780150
C           8.71641562315545    0.84737101954235   -0.02561180005640
C           9.20700358411849    2.15774167616453   -0.02493604115182
N          10.54537635503470    2.15078244530853   -0.02550077654082
C          10.90796593620596    0.88673539686156   -0.02712442981883
N           9.85155960998040    0.04400141343383   -0.02712292536988
C           9.89203519715791   -1.33823699468130   -0.02744834976694
C           8.89821133374767   -2.27709060359673   -0.02684855158769
C           9.56600777060799   -3.52536798194803   -0.02748453801265
C          10.89777937258574   -3.25097651485187   -0.02749407232880
O          11.10988404315847   -1.91985797652521   -0.02832704669556
H           1.06000269116004    1.06309495199988   -0.02182705582798
H           1.09242125958282   -0.47412988590107    0.86726684147333
H           1.09057211350271   -0.48521220565656   -0.89165402660888
H           8.64050811815255    3.06700528200328   -0.02403560860327
H          11.92363262047892    0.54465954587509   -0.02786696395711
H           7.84518441189305   -2.08845176099388   -0.02626788249507
H           9.10798679863701   -4.49244213305321   -0.02745263258112
H          11.76569814867367   -3.87907982376496   -0.02779223453300
