23
0 1
F           1.49356290521225   -0.39098361715073    0.01569307299302
C           2.79770545490025   -0.28148934460875    0.02282013779987
S           3.57283470304657    1.28393129366079   -0.02675389576421
C           5.06484295049262    0.33552160774305    0.01773977941048
N           4.85707036445229   -0.94777259809912    0.06408840107947
N           3.59022180560533   -1.29167344353875    0.06663121885214
N           6.23694304092416    0.99842694405362    0.01704406328484
N           7.28103752583823    0.24273935173562    0.01398135871416
C           8.48516726069699    0.81253597426670    0.02835623871180
C           8.98167829593642    2.12712022356648    0.03984763024321
N          10.31320048245089    2.11081668373539    0.04505950948106
C          10.67273217716511    0.83982967677139    0.03898886513052
N           9.61961517585839    0.00217430531124    0.02774647326787
C           9.64289361607065   -1.38122217471604    0.02132468727411
C          10.69415988156405   -2.27393000466366    0.01424474987000
N          10.20881161740421   -3.53399224611563    0.01140004219315
C           8.90624779643653   -3.42628250479935    0.01620445123978
N           8.50370392319580   -2.13717133460163    0.02260729021131
H           7.57012460899742   -1.73528535975999    0.02613265969618
H           8.41709217651085    3.03756379875429    0.04180079929627
H          11.69060147077417    0.50567297406453    0.04253336642058
H          11.74791656155093   -2.08514922594328    0.01083742767412
H           8.22696620491548   -4.25381097966644    0.01562167292032
