18
0 1
N           1.47504304889581    0.21224747010534   -0.07235570255542
C           2.61866539197113    0.14602406675617   -0.07878206337660
C           4.02050060127818    0.10200333450292   -0.08193335758895
S           4.98124383389223    1.56031203278444   -0.08538521046193
C           6.36583417996189    0.45341942305558   -0.09018754720828
N           6.00677713042103   -0.79985279823407   -0.08785330305700
N           4.72801733545124   -0.99387387048978   -0.08357343374588
N           7.58528636804075    1.01612634851183   -0.08968645471129
N           8.59470511598236    0.22450821950755   -0.10332593908572
C           9.80453274946989    0.80455067140543   -0.09878679936804
C          10.29697016050525    2.10900174404141   -0.08851969276697
N          11.64138827505856    2.10076858680654   -0.09244244730143
C          12.01141172861348    0.85052253833620   -0.10415327382162
N          10.94477438950539   -0.00015367430322   -0.10921394374789
C          10.99030658971307   -1.33034122004781   -0.11997740207799
N          11.07458203282295   -2.46914197378170   -0.12984083744157
H           9.73443600251542    3.02096029976138   -0.07995051864973
H          13.02802506590139    0.50887880128183   -0.10946207303367
