17
0 1
N           1.44692693082904    0.01802550972859    0.01694067675490
C           2.59209228322074   -0.02296733592738    0.01451703130396
C           3.99385672875572   -0.03886239082518    0.01236002477413
S           4.92577141199161    1.44164147503761    0.00095599079310
C           6.33186167845208    0.36487467666718    0.00348622929535
N           6.00054074135615   -0.89620216392736    0.01268930082347
N           4.72297194273055   -1.11791651440735    0.01693447669866
N           7.54202671056038    0.94936124588335    0.00303837812657
N           8.56005942785540    0.16326681583438   -0.01003627992849
C           9.77055154941232    0.73477084073906   -0.00429480945393
C          10.28279739509107    2.04079844434621    0.00616534153494
N          11.61899524729381    2.00575010489574    0.00305793958826
C          11.95669196589174    0.73208545914945   -0.00806780668739
N          10.88700125163137   -0.07582769809331   -0.01378237681222
H          10.85620073761422   -1.08297207433790   -0.02181743590382
H           9.73698339988914    2.96262981951984    0.01363383160268
H          12.97034059742465    0.38218378571706   -0.01229051251014
