26
0 1
C           1.40762293463926   -0.03369836044579    0.08608851271505
C           2.88612252253076    0.00276110811201    0.09136940058153
S           3.79599064906782    1.49546186265805    0.03372311743925
C           5.22771036586371    0.45593161633535    0.07949819443317
N           4.92351972020465   -0.80590071342895    0.13332441365218
N           3.63662120984910   -1.04862887035911    0.13985550122521
N           6.43036016853275    1.05974972081939    0.08338942190571
N           7.44978350799530    0.27643511917261    0.05934548168051
C           8.66089422960262    0.84552823607703    0.08343265600613
C           9.13356643686493    2.16253418491168    0.10093856944795
N          10.47109425452575    2.17404389538986    0.10473009008097
C          10.84786410195971    0.91421376765868    0.09340426095006
N           9.80692524346281    0.05405270624075    0.07780234080259
C           9.87567580067704   -1.32817956902527    0.06832926690109
C           8.85141162812901   -2.23020373635769    0.06531520847822
C           9.31713033576029   -3.56193997641755    0.05641109562452
C          10.67080980548500   -3.65480973795079    0.05363742888980
S          11.43109478614167   -2.11324070246727    0.06154167241853
H           1.00077221675709    0.97246401679231    0.05065383278533
H           1.04956195129021   -0.53963363068451    0.98151064035485
H           1.05664584612189   -0.59839352409003   -0.77644996306007
H           8.55276831448477    3.06272897597750    0.10472647723247
H          11.87072327672114    0.59141508800678    0.09589305280080
H           7.81590366212724   -1.94369487738051    0.06975729785617
H           8.66297481883379   -4.41442227284364    0.05285512939290
H          11.28252221237179   -4.53468432670094    0.04809689940502
