22
0 1
C           1.29705656821875   -0.06524091555457   -0.13983362772065
C           2.76719691211022   -0.03628087400003    0.00687598974305
S           3.78089393406404    1.08293591945380   -0.90003444161597
C           5.13427003790459    0.28611069771427   -0.07876899766121
N           4.74357262325757   -0.63902142541584    0.74988433554366
N           3.44045211642700   -0.79978290386443    0.79086917373382
N           6.34920479826155    0.82502912187176   -0.19177773671677
N           7.39558501776818    0.10179840971961   -0.16371210453418
C           8.58501556351890    0.72338755293095   -0.07777120515847
C           9.03332702402202    2.04159410762102    0.05857803701342
N          10.36988757657979    2.06471743966935    0.10140681493904
C          10.75947831044915    0.80819361370962   -0.00073841000861
N           9.73315002216845   -0.04439513169092   -0.11421339125543
C           9.76651173795141   -1.47484204518384   -0.21696342810783
H           0.87206982026219    0.90884066993836    0.09844093829504
H           0.88816839233901   -0.81556344847599    0.53144018278774
H           1.02652539725781   -0.31003067722508   -1.16657621276274
H           8.44609578766430    2.93569090136226    0.12003221185757
H          11.78645064952661    0.49833830268516    0.00204106092526
H          10.75647436764152   -1.79406599961105   -0.53803436214069
H           9.01655172451786   -1.80018396594023   -0.93690845115447
H           9.53318161808949   -1.92909934971380    0.74834362399863
