17
0 1
N           1.55814701429168    0.19449589717419   -0.05687345784113
C           2.70346956485579    0.15472355459563   -0.06085856347123
C           4.10539617604014    0.13709090385247   -0.06556971363914
S           5.04179280268475    1.61280848896563   -0.06575078428808
C           6.44537501761845    0.53190335501684   -0.07246560800153
N           6.10827863795001   -0.72889009595928   -0.07446480226853
N           4.83074803236171   -0.94637945590813   -0.07069065138732
N           7.65277392419611    1.11851931098738   -0.07746083100763
N           8.67450762798859    0.34142662075309   -0.07816445135566
C           9.88768495391349    0.90591101437195   -0.08528993443995
N          10.28694139747568    2.17495673283594   -0.09033717550494
C          11.61696901405633    2.14770571673024   -0.09545032263702
C          12.07725760854070    0.83681810656434   -0.09393300951327
N          10.97788190273665    0.06394724461851   -0.08732799697378
H          10.92538559452803   -0.94247552985086   -0.08469434136002
H          12.19103230785113    3.05296355815019   -0.09985540502207
H          13.07311842291078    0.44269457710191   -0.09702295128869
