18
0 1
N           1.58480068094556    0.13752327279427   -0.06517251892126
C           2.72882429922586    0.07691253176518   -0.06734137292414
C           4.13090773478890    0.03605104913994   -0.07237131494015
S           5.09197069074413    1.49144177890832   -0.07503301657854
C           6.47703217578558    0.38384587255263   -0.07911416842215
N           6.11493919106576   -0.87030525073450   -0.07906262809278
N           4.83753257132404   -1.06290436550691   -0.07537022795100
N           7.69169532164400    0.95079255009750   -0.08573417311379
N           8.70782742773870    0.17037646440307   -0.08245476562358
C           9.91629461945547    0.74965673988073   -0.09134956511316
N          10.29827652128396    2.01002645402565   -0.09932069788995
C          11.63700393505078    2.01322703745630   -0.10376070030373
C          12.12798130766759    0.72543323362529   -0.09892953717350
N          11.03622445211883   -0.08986025436341   -0.09071458031387
C          11.03383528561864   -1.41945757852787   -0.08437339213364
N          11.05916042069987   -2.56176011504076   -0.07930237468595
H          12.18679068801506    2.93337214768157   -0.11008911691627
H          13.12883267682726    0.34303843184302   -0.10058584890252
