18
0 1
F           1.48675706159755   -0.17862808391767    0.33505093593605
C           2.78949127477520   -0.12235034948493    0.19138405997172
S           3.72952036236899    1.13978365908454    0.96177427966335
C           5.10768206916190    0.30671933454678    0.20981813829581
N           4.75235879323441   -0.72741751430704   -0.49942927250875
N           3.45957199743178   -0.95862063493796   -0.51138420790005
N           6.30014299137183    0.89732155475972    0.25633476943238
N           7.36540307355648    0.20023429754139    0.18920089624424
C           8.54688145101545    0.80439767367888    0.06046639463048
N           8.93600518997577    2.07698410144152   -0.02704620589085
C          10.25991268808374    2.05410771587873   -0.08472384445323
C          10.73774340435178    0.74428810610958   -0.05079594874185
N           9.65171683038072   -0.03353273046245    0.04286000292834
N           9.57751929896921   -1.40224699992555    0.00421977679588
H          10.82998144930930    2.95940466483858   -0.14980591150700
H          11.73401852465715    0.35375817566311   -0.08302257461085
H          10.17200181750885   -1.84717289491519    0.69712292414167
H           8.59921172225003   -1.66825007559196    0.10745578757265
