24
0 1
N           1.58753326300759    0.19848606159855    0.44496165476626
C           2.72355973105681    0.17934829589090    0.29069694790672
C           4.11314824635375    0.17647121594049    0.12967793331460
S           5.14871855479028    1.27614590067223    1.04044106207493
C           6.47678144018494    0.45888284512717    0.20396446267208
N           6.05806164207525   -0.46209912268288   -0.63906706113688
N           4.77100060292316   -0.60228488636704   -0.67272255830197
N           7.69373712997596    0.96942630852549    0.28743191330261
N           8.74543147575926    0.26119916467956    0.23912690859428
C           9.92756500568787    0.86761133123789    0.10096905449559
N          10.23559897169432    2.15681472213096    0.02489314907979
C          11.56284844456818    2.22415653256796   -0.04739768181676
C          12.11443021253705    0.95386745418046   -0.02720057281244
N          11.08163218691207    0.08709599324931    0.06532480548185
C          11.16097021884296   -1.29148064144490    0.09585351136341
C          10.16981519294320   -2.20415192477119   -0.13487324808035
C          10.63057211920405   -3.53025956269204   -0.01249319605961
C          11.94982506035727   -3.61054032700929    0.30087349057038
S          12.67882367715011   -2.06517388136180    0.45971774818028
H          12.06932344899805    3.16661919439843   -0.10996837971337
H          13.13399278021914    0.62850677282399   -0.07609905762265
H           9.16135691491291   -1.92998239555136   -0.38215976109811
H          10.00165440170183   -4.38929856374197   -0.15748591292173
H          12.54971927814343   -4.48642048739999    0.44742478776120
