19
0 1
C           1.34507936946849    0.12188725536927    0.01090079208869
C           2.82403306449710    0.13468604550124    0.00687380817404
S           3.76048541140726    1.60740254027883    0.00157804740870
C           5.17621913060286    0.53729011733555   -0.00047686838441
N           4.84308981453549   -0.71850805143336    0.00276590431772
N           3.55395198857083   -0.93535656819491    0.00679121124543
N           6.38046781277990    1.13166351601723   -0.00521112848052
N           7.40886742112188    0.36612630212883   -0.00698112270560
C           8.61858560167984    0.94948105885447   -0.01205417160234
N           9.00160582921071    2.22099184105973   -0.01593129627886
C          10.33577381713090    2.20827284789346   -0.02036386000072
C          10.80984426710544    0.90709033861288   -0.01931748226728
N           9.71595020785158    0.12034470986074   -0.01403753416946
H           9.67480840670138   -0.88615075370050   -0.01186264706288
H           0.95382220379087    1.13480850587860    0.01040081442446
H           0.98453866377413   -0.40711943879561    0.89195434097181
H           0.97981082206153   -0.40978137275907   -0.86659975822659
H          10.89828692789125    3.12080643606884   -0.02411978198328
H          11.80889923981856    0.52149467002379   -0.02190926746889
