24
0 1
N           1.70245486524341   -0.21568278887797   -0.11745239003898
C           2.84417172173268   -0.14492395375431   -0.04411735992756
C           4.23840710111912   -0.03106187652166    0.02777761402024
S           5.08039709414415    1.39310869388887   -0.56661391842760
C           6.53971181009788    0.53707366782372   -0.07605506137736
N           6.29064520752156   -0.63308618301357    0.46719255827991
N           5.03054311930574   -0.93574060511058    0.52085650287169
N           7.71692638337959    1.16452686613208   -0.13471594481479
N           8.76585545843603    0.42735618588878   -0.10220065486675
C           9.96989533893320    0.97871846607218    0.01631311953381
N          10.36180400489993    2.24717012562936    0.09955541681044
C          11.68687797345612    2.22449432553097    0.17450258452622
C          12.15868166967429    0.91730718966089    0.14858339915614
N          11.07427349256901    0.12312555140855    0.04634293532910
C          11.05244090683881   -1.25611474924381    0.01054641751142
C          12.07592774598454   -2.18213727367476   -0.04864628411918
N          11.55394682137628   -3.42572422750678   -0.05677744401550
C          10.25556227442888   -3.27988776031934   -0.00227509182619
N           9.89264949462359   -1.98046874265334    0.04088878511988
H           8.97226506839015   -1.55205511268462    0.07682579201356
H          12.25580767035942    3.13033812608977    0.24377970760441
H          13.15568083057671    0.53172792470921    0.20048200590717
H          13.13426747679984   -2.02545775683500   -0.09081733132829
H           9.55237647010945   -4.08737609263836    0.00904464205837
