17
0 1
F           1.33449630589472    0.12847371347288    0.03970775247009
C           2.64165299939807    0.10586609189755    0.03472691368160
S           3.57425385366958    1.57474927890729    0.03259895267827
C           4.96714832385383    0.46519602339835    0.02657604791907
N           4.61381009818976   -0.78449997538083    0.02647234225433
N           3.32522986743464   -0.98866296238690    0.03096237613869
N           6.18134188872192    1.03521582985542    0.02109540096471
N           7.20077902871443    0.26078153492115    0.01980191239482
C           8.40796643147426    0.84614695552687    0.01300772408006
N           8.78670050790361    2.10705363961191    0.00788398122677
C          10.12619446296292    2.11375187604294    0.00261063944591
C          10.62016467770414    0.82789400421629    0.00429234065894
N           9.52985047962701    0.00978775419489    0.01098095152225
C           9.53330543327562   -1.31955632696625    0.01451539666693
N           9.56784631886333   -2.46170770954402    0.01766396630549
H          10.67341728120008    3.03539344066284   -0.00209623680986
H          11.62170204111208    0.44738683156962    0.00136953840191
