17
0 1
N           1.51491076987817    0.12217885395297    0.08245234787890
C           2.65946565272458    0.06961092663282    0.07852912170651
C           4.06174976339483    0.03687242639547    0.07396117425916
S           5.01398173342135    1.49948006595804    0.07470413389924
C           6.40527467261694    0.40098884301218    0.06740556668452
N           6.05233643572165   -0.85497030421990    0.06445480194303
N           4.77456359372777   -1.05657231115241    0.06795411192086
N           7.61833965356668    0.97561013773053    0.06266485266069
N           8.63557664073938    0.19822591336632    0.06189880075847
C           9.84652629304015    0.77038058510997    0.05499806650518
N          10.25065508441169    2.03492289602567    0.05051543267169
C          11.58400017987046    2.02184098718315    0.04544084166719
C          12.06310186464027    0.72223541855404    0.04635283468341
N          10.95794671709410   -0.03921942100054    0.05257256914242
F          10.96859514271877   -1.39364868260776    0.05516142372100
H          12.14511974903397    2.93506174845603    0.04148712443915
H          13.05189605339925    0.31286191660342    0.04323679545859
