26
0 1
C           1.33377475164176    0.13412841572873   -0.20285225203979
C           2.80505981947599    0.16244844500281   -0.07113689864501
S           3.80464048289239    1.34703879679743   -0.89944329020559
C           5.16835271304767    0.50313606477771   -0.14890579123500
N           4.78732522402329   -0.48471325495782    0.61290033390714
N           3.48804892698989   -0.65603221854008    0.65228366397501
N           6.38171296525530    1.04777696478710   -0.24760819307755
N           7.41301809510198    0.30356740964978   -0.15881095943128
C           8.61602070779626    0.88470963078507   -0.07449748289629
N           8.97379932921324    2.16046182980482   -0.03330139491828
C          10.30598136663346    2.17801414962229    0.04070106898844
C          10.81000178640435    0.89150981567160    0.05113386700221
N           9.73875044283504    0.06427827044709   -0.02015088336433
C           9.76829503692226   -1.31522436973153   -0.02357174854521
C           8.76935220388016   -2.24795509100262    0.04573994199033
C           9.42444517436601   -3.50105117011571    0.00520391077123
C          10.75612574333611   -3.23744082596124   -0.08241688516398
O          10.97841785918984   -1.90920882704087   -0.09953478161971
H           0.90473733120621    1.07580176731137    0.13834109013946
H           0.93833611874652   -0.68314711878261    0.39473520951160
H           1.05196276179505   -0.00635100969248   -1.24596970752105
H          10.84630604345402    3.10281572829915    0.08381271480308
H          11.81314556022901    0.52135559628121    0.10439556664640
H           7.72113448457687   -2.05047758874931    0.12087701720843
H           8.95994236991445   -4.46439179570333    0.03919382897041
H          11.61648270107363   -3.87360961468916   -0.13690794525127
