19
0 1
F           1.37731703617162    0.06488029836802    0.30791911815285
C           2.67940700694379    0.07485927522718    0.15013935049811
S           3.69429181067252    1.15759902638083    1.08615798716481
C           5.02024626350994    0.37058182528933    0.19906289511799
N           4.60249246402373   -0.52519361776928   -0.65282147402101
N           3.29843922794522   -0.67903029948545   -0.67950331991592
N           6.23529404738356    0.89950924086460    0.28522678003996
N           7.28944579833986    0.19844738589431    0.21911829554680
C           8.47240779293051    0.81328890279097    0.08461611624922
N           8.79113832217476    2.09577019846591   -0.07754285124805
C          10.11621047390590    2.13648684540223   -0.18008387015620
C          10.64725817069411    0.85666982516382   -0.08342833235083
N           9.60478733700424    0.02601797552798    0.08320995080279
C           9.63453530873506   -1.40132996184593    0.22269354950659
H          10.63577745464882    3.06375600534742   -0.31781425926494
H          11.66129356226325    0.51304002512923   -0.12378507402508
H          10.19903333113614   -1.68403824431034    1.11233742481413
H          10.10068052271141   -1.85693764891362   -0.65168849800885
H           8.60858406880547   -1.75226705752679    0.31227621109761
