25
0 1
C          -0.85643840262398    1.29251596315560   -0.16038567689882
C           0.44485267117444    1.23219186597574   -0.40954265135773
S           1.45350390338503   -0.20238925337863   -0.23597372493277
C           0.18771722320336   -1.35217485422835    0.17904236981503
C          -1.09079959518737   -1.05182962341977    0.37665125035320
N          -1.64412670857584    0.22315182869635    0.27899849349001
C          -2.94532404093347    0.45085305904264    0.56776741070142
S          -4.04588009191894   -0.79028679074946    1.15369323285312
C          -5.25661411689251    0.53374434043460    1.19032692358822
N          -4.75775018103748    1.66502309826418    0.78364441662007
N          -3.50601638020505    1.62717450319459    0.42989376951932
N          -6.51021786618053    0.18696509875707    1.43601257622923
N          -7.36349475635145    1.06702286127630    1.80873981390312
C          -8.65539225390289    0.69768072394663    1.85903254490801
N          -9.27785227263042   -0.41992382732911    1.50702945973096
C         -10.57609586951753   -0.21602204193430    1.75374038632488
C         -10.78040030163654    1.04968908445178    2.26863039812624
N          -9.55779853929442    1.62054287460752    2.33041811550339
H          -9.32146858619547    2.54539058257694    2.65046902689659
H          -1.41589789676898    2.20693204083902   -0.28653275359408
H           0.98931149276780    2.09371733429571   -0.75252038807501
H           0.54228789095134   -2.36399744804074    0.26145061736761
H          -1.80096192911530   -1.82635667198009    0.62742092122821
H         -11.30236046961739   -0.97836200150493    1.55323605299725
H         -11.67469292289763    1.55115725305119    2.57752741470247
