26
0 1
C           1.61171120869411   -0.31035395743669   -0.03799611425671
C           3.07721856610431   -0.12709245273995   -0.04626932799015
S           3.83441795621726    1.44269058446493    0.14515145426047
C           5.35412319591774    0.56447557093271    0.01610418852278
N           5.18542048310412   -0.71694689252356   -0.15266487668813
N           3.92789879231372   -1.08840115079464   -0.18700991604683
N           6.51260319465234    1.25313674293824    0.06738173467739
N           7.55250673145557    0.49603075052944    0.06450345015929
C           8.77913672579568    1.00858054052175    0.08686057610530
N           9.23438538224655    2.25655311278722    0.12130813288377
C          10.56103791432088    2.16858112891342    0.14819382080993
C          10.96698899938614    0.84215682743079    0.12853833845976
N           9.83990276492641    0.10049808916657    0.08925416911597
C           9.74765299422387   -1.27707709551514    0.05475843314982
C          10.72371179999511   -2.25304043960782    0.09145690720094
N          10.14324623902588   -3.47028129590222    0.02934586186808
C           8.85477901361733   -3.25677018217240   -0.04354865969412
N           8.55548127635320   -1.94123283072009   -0.03271240979627
H           7.65607315299474   -1.46505993285988   -0.06546873439640
H           1.14363022246920    0.34009725720149   -0.77567013820476
H           1.20782584598697   -0.05402988648279    0.94162121119216
H           1.37968869719510   -1.34825549409274   -0.26257136469522
H          11.17507842367663    3.04676601514839    0.18045313600752
H          11.94495882443833    0.40783821441322    0.13896828559754
H          11.78729428128269   -2.15003319184896    0.16020792951971
H           8.11280731360577   -4.02631003175045   -0.10619608776148
