22
0 1
C           1.47899045987030    0.02071866476549   -0.01298347968215
C           2.95789663798319    0.05925755526098   -0.02296603695684
S           3.86829549027351    1.55038812381888   -0.01741133037944
C           5.30155084374893    0.50781666534264   -0.03354228427969
N           4.99333978296124   -0.75447251760921   -0.04201747950989
N           3.70705499336309   -0.99584811846761   -0.03623903798526
N           6.49873129331410    1.11901729806028   -0.03804299286265
N           7.52948589617625    0.35440538011822   -0.04268390553945
C           8.74020276152269    0.92654571119942   -0.04794998655174
N           9.13159955805866    2.19943282716217   -0.04521254752754
C          10.46228669564202    2.17540358099213   -0.05050987589174
C          10.92228545268268    0.86623706651884   -0.05702750257100
N           9.83063182271897    0.08258115138342   -0.05512805086932
C           9.76828007589294   -1.35040377810438   -0.06083861146232
H           1.07083314055631    1.02685073172827   -0.01291565410828
H           1.13131885410360   -0.51279703809525    0.87049742686937
H           1.11957922217240   -0.51822723255332   -0.88832181309910
H          11.03566186326391    3.08122066248939   -0.04926551943687
H          11.91914761608435    0.47315947390523   -0.06248204731461
H          10.77717225436458   -1.75860339056174   -0.06043911612623
H           9.23064494683807   -1.69423504734895   -0.94503181264133
H           9.22692033840823   -1.70063777000486    0.81848165792605
