24
0 1
N           1.54943598924905    0.30957994915990   -0.29630155609646
C           2.68520670102450    0.27561223353555   -0.14093306927114
C           4.07425522380116    0.25067110952568    0.02233138202152
S           5.13969996352596    1.24293039976333   -0.97435563478040
C           6.44582194139344    0.45914195404553   -0.07085940311292
N           6.00134094714107   -0.37937416753914    0.84268007496117
N           4.71111803624290   -0.47919405682661    0.88549092336745
N           7.67441564253761    0.93064069863361   -0.19019465316852
N           8.71458318735345    0.20950173164987   -0.11933480878473
C           9.90658442792648    0.80415194397400   -0.01171088939011
N          10.23451963970820    2.08805462206805    0.06722581631859
C          11.56312678772700    2.13538397641489    0.13937532860513
C          12.09789150671130    0.85804213897444    0.11324116702949
N          11.04909937306873    0.00883870932032    0.01853783436528
C          11.11084729327731   -1.36937273192222   -0.01482277264033
C          10.13468270794637   -2.32718880380076    0.04946635505865
C          10.81795310663517   -3.56300768472417   -0.02222453059422
C          12.14232442007282   -3.26529596128504   -0.12091432452500
O          12.33277056597008   -1.93314236826878   -0.11579329469974
H          12.08262509240809    3.07046361873440    0.20671325787466
H          13.11039144868083    0.51258348153968    0.15659242061614
H           9.08294119454337   -2.15875203306780    0.14175353300036
H          10.37681888580574   -4.53747596483600    0.00002969357941
H          13.01610591724904   -3.88058279506950   -0.19719284973465
