23
0 1
C          -0.85972322731668    1.29737370807054    0.37232400832864
C           0.44474675458311    1.24949394286680    0.13155508925390
S           1.35093737018045   -0.19184675927077   -0.30526519200218
C           0.04633902365647   -1.35895984580104   -0.19028986991280
C          -1.22438166805243   -1.07345772055879    0.07631640382847
N          -1.72954822663953    0.20296757691436    0.31580580873535
C          -3.04587254062756    0.40802386096214    0.51750105252164
S          -4.26220485522890   -0.85340256472357    0.43908254559892
C          -5.42251900821812    0.46981445412105    0.79916500813548
N          -4.82129293169995    1.61862740084065    0.94043110134972
N          -3.54016722162718    1.59774695104078    0.80443640523700
N          -6.67680597335703    0.11278941969484    1.02363429299582
N          -7.60956150300524    0.97935156202954    1.01662399656881
C          -8.81499838397190    0.62317374734505    1.49110609897044
N          -9.95769095630396    1.21665178409442    1.06230825916368
N         -10.90870361176113    0.77168008327479    1.79329403496436
N          -9.07247371161259   -0.20767027506973    2.51983923655532
N         -10.34979469537707   -0.04465067501459    2.63220117584901
F         -11.05323690665851   -0.66822496850161    3.59180495042112
H          -1.35380418616089    2.22017440842725    0.63592017748315
H           1.05538362772386    2.13275074245395    0.19541277122175
H           0.36366202255325   -2.37316902368058   -0.35664710690944
H          -1.96120919107804   -1.86154780951464    0.12933975164105
