21
0 1
F           1.70836616371028    0.64681118232768    0.12502499167240
C           3.00524119162818    0.55463203422753   -0.02850397234189
S           4.10410889522437    1.08366700003409    1.23355833175525
C           5.36010890489982    0.51386561076438    0.11153505933984
N           4.87402526644259    0.06128457354252   -1.01212209542654
N           3.56681388475433    0.09590024998361   -1.08531826604748
N           6.62321911986081    0.83217296735055    0.37313073207704
N           7.60426447077568    0.08089423341083    0.15330077181556
C           8.84104806251374    0.62024776402606    0.22160366829653
N           9.94198076338107   -0.15637078163040    0.36379494040221
N          10.95059132554958    0.61166116159227    0.31128894223020
N           9.19166896822742    1.90605474127344    0.06869298153772
N          10.49271287212724    1.84859886105206    0.11883264484812
C          11.31389565153096    2.93865761438174   -0.01381030033708
C          12.68247232140501    2.94158136847213    0.03158916485634
C          13.19776187387055    4.23814783126434   -0.13797007027679
C          12.22312284064007    5.17519453429739   -0.30693011983035
S          10.64242839400021    4.51060081547011   -0.26232848331015
H          13.26638715190961    2.05275319875596    0.18045209872529
H          14.24766444569360    4.46615436287345   -0.13546981111900
H          12.34382743185436    6.22967067653073   -0.45641120886755
