24
0 1
C           1.63027169516242    0.43508183407750    0.08897249511366
C           3.10004071390489    0.39797778849528   -0.04589675014079
S           4.18092163520559    0.94290957406604    1.22864603417516
C           5.48249028469306    0.44413138918056    0.13468180020702
N           5.03261920901262   -0.00315467485659   -1.00573718926617
N           3.72866551138815   -0.01382162548032   -1.09278256544383
N           6.73074516975387    0.79033765291918    0.44247796125824
N           7.72582057950005    0.07634623726315    0.15566087852650
C           8.95665711746723    0.62047145417476    0.26235801122628
N          10.05947048480154   -0.15096792279601    0.42513922392960
N          11.06616117536907    0.62301131007798    0.37870885971586
N           9.30239097975772    1.90515798284820    0.10240899837237
N          10.60653472737141    1.85271841374714    0.16754064884266
C          11.42415038474808    2.94541604633967    0.02806631936935
C          12.79148220359092    2.95457297580136    0.07711522643746
C          13.30283846826199    4.25247076328775   -0.10202881116471
C          12.32605151897382    5.18421707328172   -0.28031491096213
S          10.74691304224041    4.51207676285938   -0.23477564835232
H           1.27605652042237    1.46540104602288    0.06419675438918
H           1.32575174653020   -0.00320325757637    1.03731713385622
H           1.18192615235103   -0.11471879466129   -0.73383511478189
H          13.37830361814156    2.06909543110623    0.23398662137425
H          14.35209743333915    4.48383441809578   -0.09922464377705
H          12.44195962801286    6.23790812172557   -0.43823133290454
