25
0 1
C          -1.10150068176938    1.20089134977071   -0.23682755083145
C           0.18102923945076    1.10407303667963   -0.56198316703505
S           1.18712248624361   -0.32414976695878   -0.34140039156377
C          -0.04794923041247   -1.41124734214045    0.27754563459016
C          -1.31007292221313   -1.08172306880681    0.52984327489033
N          -1.86796580194474    0.18003643121467    0.33578682146978
C          -3.15073733565834    0.44107074707089    0.66806637220028
S          -4.21801076496475   -0.72434034017987    1.43897287435027
C          -5.42547748980408    0.60625210415451    1.40172543277272
N          -4.94705408761521    1.68349375857555    0.84864218720345
N          -3.72170653215974    1.59990184165416    0.43351035660703
N          -6.66616772050449    0.29124484930376    1.73617337643893
N          -7.50477424781542    1.18495535088677    2.08563338940980
C          -8.79109608810030    0.79127163828006    2.18579644861122
N          -9.71554044305838    1.56581585840591    2.78396468782850
N         -10.84002879271756    0.95413853573203    2.67932912102816
N          -9.36171657866241   -0.33151509316566    1.69124411575072
N         -10.60345125037365   -0.15920320479004    2.01844892152739
N         -11.59160053109562   -1.01176840959511    1.65041526312067
H          -1.66017470236396    2.11024598281984   -0.39900732300356
H           0.70937676166712    1.93043060815258   -1.00334494795663
H           0.30954996037772   -2.41186809311976    0.44375103852073
H          -2.00143883706022   -1.81968283333296    0.91011997372961
H         -11.25119688902999   -1.96181058779894    1.56072106840131
H         -12.39850752041501   -0.90939335281281    2.25417302193844
