14
0 1
F           1.56050628665641    0.16162701043901   -0.07423310105646
C           2.86464629326049    0.11518787086301   -0.08205982641224
S           3.82637816796718    1.56232177130444   -0.08350260540184
C           5.19524241785101    0.42574294359587   -0.09408840136123
N           4.81632492656021   -0.81702469443233   -0.09571095236558
N           3.52831078548995   -0.99510148377424   -0.08916324530804
N           6.42552847780005    0.96794536241792   -0.10182349692319
N           7.42515347764763    0.18427476643618   -0.10421151377231
C           8.63999426759053    0.79179432973984   -0.11266265533753
N           8.92672773571134    2.12104529898245   -0.11185047486912
N          10.19569369360687    2.22972434387447   -0.11912671987769
N           9.76673793950514    0.07080767674731   -0.12100401105402
N          10.64962984892308    1.00719311779456   -0.12487168169944
F          11.95437568143012    0.73619168601151   -0.13346131456134
