17
0 1
F           1.74999402580085    0.37542532886668   -0.07816126600361
C           3.05259927124519    0.30609277971153    0.02769578116412
S           4.09704430409899    1.05153873666233   -1.17008357342713
C           5.40183175450129    0.36699800033544   -0.17702072093207
N           4.96415122301166   -0.26289526871939    0.87932672071113
N           3.65966817840063   -0.28462318432165    0.99001012488842
N           6.64782466755944    0.76586206282264   -0.41603758195104
N           7.65549253195735    0.02588653454307   -0.33326352117901
C           8.87581682225195    0.61017270313600   -0.35168519306985
N           9.99310390620650   -0.08661514318386   -0.66773936125651
N          10.97608989637178    0.70851753709615   -0.51123293388405
N           9.19674280799964    1.86243804907384    0.01352986766189
N          10.49368171618285    1.86345707615308   -0.09090094431701
C          11.31080024179618    2.98967057976544    0.23055510400617
H          10.66812746539351    3.86108668122266    0.33339224784425
H          12.04043224202000    3.14081009898918   -0.56395735852077
H          11.84117894520215    2.80837742784651    1.16679260826469
