23
0 1
C          -0.77389679608772    1.30612982664000    0.07651224902306
C           0.53291908643953    1.22850672759937   -0.13874490963296
S           1.46529929497495   -0.26017383107531   -0.24200367295760
C           0.14070414811569   -1.40219210778744   -0.08417000884332
C          -1.13184632479331   -1.08419681474719    0.12785432649386
N          -1.62812189252403    0.21208187465582    0.25480590908094
C          -2.92797813812013    0.44295734841703    0.53112441702353
S          -4.11612728964508   -0.82221806655497    0.79733532954390
C          -5.25899195400694    0.53504759521780    1.06423591754225
N          -4.68384168143589    1.69306570691491    0.92118314611372
N          -3.42646464517157    1.65832317836821    0.61928630852035
N          -6.53726012905838    0.21033819386001    1.22060600291683
N          -7.36684487831879    1.07556201516419    1.64484106404545
C          -8.64847473146084    0.67895131242403    1.80588201476870
N          -9.07171539784307   -0.55131062969462    2.22288588517605
N         -10.32712988984522   -0.46320107743900    2.41177824633337
N          -9.67647659297731    1.52783799393165    1.74472330134547
N         -10.68470144732999    0.76678464510913    2.10923410457618
H         -11.63162977070164    1.11221768828648    2.17224146380201
H          -1.28398959990649    2.25589525150061    0.13000989719957
H           1.12965838934944    2.11329544549610   -0.27187434270110
H           0.44902118738741   -2.42829726066621   -0.17783811954195
H          -1.88117094704118   -1.85769501562020    0.21081147017206
