18
0 1
C           1.49137131970056    0.07495775589269   -0.05648929113677
C           2.96726490896445    0.07093614650286   -0.06182518166749
S           3.93031907883347    1.51675947878923   -0.06944625110188
C           5.32514995734006    0.41754595187230   -0.07004017473107
N           4.96187909301763   -0.83316777035825   -0.06609076499855
N           3.67973180413061   -1.02049032986610   -0.06204377501220
N           6.54116452665401    0.98020887105883   -0.08046292283203
N           7.55698164851023    0.21234015050684   -0.07085912874239
C           8.75605162555066    0.84584514690417   -0.08269207669737
N           9.01188484971322    2.19568931038061   -0.08864979283511
N          10.25539824318069    2.34670416135455   -0.09390959259350
N           9.89099714128499    0.16175992632519   -0.08524584407503
N          10.80595300221265    1.11056762075911   -0.09324731983711
C          12.12176795087114    0.88424249023853   -0.09818377654588
N          13.25046081301666    0.71252493762605   -0.10290056394909
H           1.10600972202100    1.08980477046436   -0.05610260530977
H           1.12859841417251   -0.45544779479549    0.82310629663933
H           1.12241590082547   -0.45691082365549   -0.93263723457409
