30
0 1
C          -1.11191721597402    1.11311946164098    0.19340159675115
C           0.18637686217846    0.96696548732384   -0.03735443784547
S           1.03448040761787   -0.56879177541089   -0.17610009477638
C          -0.34408332642243   -1.64003746668230    0.01794633487904
C          -1.59544738469086   -1.25537710053860    0.24532895564778
N          -2.02401845075644    0.06549899241415    0.36371728287622
C          -3.31174058909276    0.36510728312154    0.63245547111787
S          -4.56835736022917   -0.83347516519617    0.88830644750383
C          -5.64164522794422    0.58512581153132    1.14086035461156
N          -5.00128521126313    1.70824575326909    1.00498974269621
N          -3.74433770798995    1.60546893791060    0.71848443330039
N          -6.93480144812969    0.32613603993883    1.29755838071503
N          -7.71955934856068    1.25838114947443    1.67911566304103
C          -9.02398797383608    0.93889271595057    1.80690240178135
N          -9.97734046755357    1.90593265972570    1.85869176205524
N         -11.08659255099215    1.32794282260665    2.07342011281722
N          -9.56983638546486   -0.26831409875264    2.00437011441181
N         -10.84024996824642    0.02462856430529    2.17529715635715
C         -11.79479462483783   -0.93073327732999    2.43955609235057
C         -11.66509069089796   -2.28765005474756    2.57174688492531
C         -12.97087350270042   -2.75626029579008    2.83877380962714
C         -13.77642046703772   -1.65672587739177    2.84548411905698
O         -13.06747025471984   -0.54243571393432    2.60377039014206
H          -1.56817771869788    2.08860181537018    0.26747853321280
H           0.83035596060023    1.81937950904505   -0.16122201132487
H          -0.08935988068676   -2.68162944134420   -0.06569334782645
H          -2.38147476712335   -1.98873874799410    0.35095513648072
H         -10.75964196576729   -2.85027810887708    2.48708784322412
H         -13.26557938808165   -3.77189705443578    3.00212878534869
H         -14.82974935269877   -1.53931282520264    3.00309208684158
