17
0 1
C           1.53020644108879    0.16191278363991    0.04607622991531
C           3.00642728993136    0.14148263356217    0.04150212744727
S           3.98553496991453    1.57628707747198    0.03675211857088
C           5.36885210155279    0.46089591155226    0.03327618443235
N           4.99091623646648   -0.78476252910541    0.03620634640051
N           3.70590225861781   -0.95772486960078    0.04077511682979
N           6.59081749174966    1.01242373330857    0.02970175803144
N           7.59918431047823    0.23562691832437    0.02423728894684
C           8.80700585740071    0.85723138736147    0.02077334338295
N           9.07830472008445    2.18950447566568    0.01833991040815
N          10.34778202462979    2.31262379154619    0.01389663603496
N           9.94127256661313    0.14846236223744    0.01763055714146
N          10.81366702844706    1.09656808466404    0.01375333890022
F          12.12412430637590    0.83901673416235    0.00952269102136
H           1.15640063258120    1.18117840060574    0.04533712658117
H           1.16077284944558   -0.36291569338491    0.92620868931575
H           1.15526891462253   -0.36628120201106   -0.82969946336041
