15
0 1
N           1.53355777807433    0.30385393131782    0.05419047910182
C           2.67600139174753    0.22583733775329    0.05195522641651
C           4.07813793145651    0.15602558880060    0.04948025573241
S           5.07378817499729    1.58366160660285    0.04084136856004
C           6.42918878201264    0.44238444328643    0.04275775754643
N           6.03597655683088   -0.80245497693943    0.04919936802911
N           4.75714549800323   -0.96261008657266    0.05277457075720
N           7.66428570729300    0.97343010542704    0.03818411275356
N           8.65288397765899    0.17456945008827    0.03733143352034
C           9.87716631192152    0.75979470849274    0.03366664612351
N          10.18679794638357    2.08393057519444    0.03248816913488
N          11.45717580950304    2.17033130642349    0.02912166195160
N          10.99130999202201    0.01915488697286    0.03095664024304
N          11.88985107777260    0.93990691963668    0.02828959246469
F          13.18960306432285    0.64686420351558    0.02494271766487
