24
0 1
C           1.78902388295057    0.33068592421821   -0.08761602033919
C           3.25961969304040    0.29217547820146    0.03381927792536
S           4.33003941881599    0.78962923226226   -1.26851927276974
C           5.64005433915058    0.32325280592616   -0.17085781782010
N           5.19977732587898   -0.08464030745054    0.98803643517229
N           3.89726945976292   -0.08756316449350    1.08763673046078
N           6.88767647162758    0.65711148606110   -0.49743335304759
N           7.88222678273840   -0.04493953466345   -0.17969825155026
C           9.11452883633797    0.49076724499840   -0.29666426339836
N          10.21675778924998   -0.28387572534458   -0.44939030732678
N          11.22626234384262    0.48709694280677   -0.40480691144625
N           9.46239802761965    1.77743111852606   -0.14494767153893
N          10.77367177678056    1.71817397373362   -0.20412347831633
C          11.57190963420307    2.82537619417466   -0.06381448318094
C          12.93871009710357    2.98983909977850   -0.08082640970357
N          13.22570919375478    4.29678007222601    0.09916341901143
C          12.08363246596446    4.91715333130179    0.22333996500306
N          11.03473170698081    4.06808513973943    0.13058282281047
H          10.04696364536496    4.26137623155236    0.19092250859856
H           1.44185966446477    1.36236577577899   -0.14180825128421
H           1.34692215818267   -0.15016494139837    0.78066549879463
H           1.47056391336516   -0.17965864069959   -0.99492353971296
H          13.69991828949496    2.24951799079948   -0.21083111533657
H          11.97686308332385    5.97121427196366    0.37980448899491
