26
0 1
C          -1.00119900742477    1.24225348584666    0.08248379776587
C           0.29291796933014    1.11910148742145   -0.18157302786785
S           1.17643823030615   -0.40018366951850   -0.28422072934378
C          -0.15829701779991   -1.49471303442387    0.04361215226342
C          -1.41222249508517   -1.13153907801239    0.29012830905698
N          -1.87999620722419    0.18066250301359    0.32458127006408
C          -3.17293951312968    0.45913323210187    0.59382140779865
S          -4.38257852933879   -0.75893854765017    0.96380306627563
C          -5.49878968643240    0.63893226700474    1.13676140485638
N          -4.90143354993087    1.76942802620882    0.90180857660932
N          -3.64663956412950    1.68593644048439    0.59395810634055
N          -6.77973967281337    0.34962993033444    1.32509199436369
N          -7.59137944634116    1.25520033688601    1.71050924836395
C          -8.88601293555940    0.87914470901328    1.82287608817332
N          -9.87129241523789    1.79455797135471    1.98342048171024
N         -10.95932876192421    1.14218584111775    2.12695783309176
N          -9.39257738922434   -0.36349180142171    1.87489259109964
N         -10.66355240480046   -0.14162463191509    2.07109109599965
C         -11.62892450562575   -1.18423972055513    2.22298107172358
H          -1.48056240452429    2.20818201688173    0.13067192437467
H           0.91115961201801    1.98123921791710   -0.35701570848509
H           0.12819377065750   -2.53118444209655    0.03064474764938
H          -2.16881991646062   -1.87764598822723    0.48318457040491
H         -11.12667242780471   -2.13553897484166    2.06297889354218
H         -12.42848759790059   -1.04969172149637    1.49461025900361
H         -12.05568413360034   -1.14964585542768    3.22600057516527
