18
0 1
N           1.83199698973396    0.55888086876699    0.13259113623167
C           2.96877149344701    0.49666764199860   -0.00146189210860
C           4.36017406468189    0.43648553225316   -0.13511627024764
S           5.43504193569016    1.13593753099099    1.08082923504982
C           6.73390897754293    0.48677411699633    0.07029660110740
N           6.28687822258256   -0.10263802924871   -1.01972202557169
N           4.99831992051157   -0.11600424620519   -1.11728540547951
N           7.97544296107132    0.87189112204755    0.30454682956715
N           8.99678409724692    0.15307556534351    0.32535327128704
C          10.20724617326902    0.75782322982252    0.31967615090593
N          11.32911021901923    0.09822286975285    0.69213936937286
N          12.30186711477444    0.89859507807251    0.50538820818557
N          10.51433484088417    1.99301049029712   -0.11072406708471
N          11.80820877537288    2.02132619587532    0.01428617248311
C          12.61703776986195    3.13659014415960   -0.35994261073542
H          12.01434545875433    4.04088069655348   -0.30534526116816
H          12.98257400783552    3.00649955515146   -1.38043623265034
H          13.46678697772048    3.19352163737110    0.31790679085564
